  Page 1                                    Wed May 06 18:09:17 2020

  ******************************************************************
  *                           E P A N E T                          *
  *                   Hydraulic and Water Quality                  *
  *                   Analysis for Pipe Networks                   *
  *                         Version 2.00.12                        *
  ******************************************************************
  
  Analysis begun Wed May 06 18:09:17 2020

   
  Hydraulic Status:
  -----------------------------------------------------------------------
     0:00:00: Balanced after 5 trials
     0:00:00: Reservoir River is emptying
     0:00:00: Reservoir Lake is closed
     0:00:00: Tank 1 is filling at 13.10 ft
     0:00:00: Tank 2 is emptying at 23.50 ft
     0:00:00: Tank 3 is filling at 29.00 ft
   
     0:05:00: Balanced after 2 trials
   
     0:10:00: Balanced after 2 trials
   
     0:15:00: Balanced after 2 trials
   
     0:20:00: Balanced after 2 trials
   
     0:25:00: Balanced after 2 trials
   
     0:30:00: Balanced after 2 trials
   
     0:35:00: Balanced after 2 trials
   
     0:40:00: Balanced after 2 trials
   
     0:45:00: Balanced after 2 trials
   
     0:50:00: Balanced after 2 trials
   
     0:55:00: Balanced after 2 trials
   
     1:00:00: Pump 10 changed by timer control
     1:00:00: Balanced after 7 trials
     1:00:00: Reservoir Lake is emptying
     1:00:00: Pump 10 changed from closed to open
   
     1:05:00: Balanced after 2 trials
   
     1:10:00: Balanced after 2 trials
   
     1:15:00: Balanced after 2 trials
   
     1:20:00: Balanced after 2 trials
   
     1:25:00: Balanced after 2 trials
   
     1:30:00: Balanced after 2 trials
   
     1:35:00: Balanced after 2 trials
   
     1:40:00: Balanced after 2 trials
   
     1:45:00: Balanced after 2 trials
   
     1:50:00: Balanced after 2 trials
   
     1:55:00: Balanced after 2 trials
   
     2:00:00: Balanced after 4 trials
     2:00:00: Tank 2 is filling at 21.03 ft
   
     2:05:00: Balanced after 1 trials
   
     2:10:00: Balanced after 1 trials
   
     2:15:00: Balanced after 1 trials
   
     2:20:00: Balanced after 1 trials
   
     2:25:00: Balanced after 1 trials
   
     2:30:00: Balanced after 1 trials
   
     2:35:00: Balanced after 1 trials
   
     2:40:00: Balanced after 1 trials
   
     2:45:00: Balanced after 1 trials
   
     2:50:00: Balanced after 1 trials
   
     2:55:00: Balanced after 1 trials
   
     3:00:00: Balanced after 3 trials
   
     3:05:00: Balanced after 1 trials
   
     3:10:00: Balanced after 1 trials
   
     3:15:00: Balanced after 1 trials
   
     3:20:00: Balanced after 1 trials
   
     3:25:00: Balanced after 1 trials
   
     3:30:00: Balanced after 1 trials
   
     3:35:00: Balanced after 1 trials
   
     3:40:00: Balanced after 1 trials
   
     3:45:00: Balanced after 1 trials
   
     3:50:00: Balanced after 1 trials
   
     3:55:00: Balanced after 1 trials
   
     3:58:44: Pump 335 changed by Tank 1 control
     3:58:44: Pipe 330 changed by Tank 1 control
     3:58:44: Balanced after 4 trials
     3:58:44: Tank 2 is emptying at 23.35 ft
     3:58:44: Tank 3 is emptying at 33.90 ft
     3:58:44: Pipe 330 changed from closed to open
     3:58:44: Pump 335 changed from open to closed
   
     4:00:00: Balanced after 3 trials
     4:00:00: Tank 2 is filling at 23.35 ft
     4:00:00: Tank 3 is filling at 33.89 ft
   
     4:05:00: Balanced after 2 trials
   
     4:10:00: Balanced after 2 trials
   
     4:15:00: Balanced after 2 trials
   
     4:20:00: Balanced after 2 trials
   
     4:25:00: Balanced after 2 trials
   
     4:30:00: Balanced after 2 trials
   
     4:35:00: Balanced after 2 trials
   
     4:40:00: Balanced after 2 trials
   
     4:45:00: Balanced after 2 trials
   
     4:50:00: Balanced after 2 trials
   
     4:55:00: Balanced after 2 trials
   
     5:00:00: Balanced after 3 trials
   
     5:05:00: Balanced after 2 trials
   
     5:10:00: Balanced after 2 trials
   
     5:15:00: Balanced after 2 trials
   
     5:20:00: Balanced after 2 trials
   
     5:25:00: Balanced after 2 trials
   
     5:30:00: Balanced after 2 trials
   
     5:35:00: Balanced after 2 trials
   
     5:40:00: Balanced after 2 trials
   
     5:45:00: Balanced after 2 trials
   
     5:50:00: Balanced after 2 trials
   
     5:55:00: Balanced after 2 trials
   
     6:00:00: Balanced after 3 trials
   
     6:05:00: Balanced after 1 trials
   
     6:10:00: Balanced after 1 trials
   
     6:15:00: Balanced after 1 trials
   
     6:20:00: Balanced after 1 trials
   
     6:25:00: Balanced after 1 trials
   
     6:30:00: Balanced after 1 trials
   
     6:35:00: Balanced after 1 trials
   
     6:40:00: Balanced after 1 trials
   
     6:45:00: Balanced after 1 trials
   
     6:50:00: Balanced after 1 trials
   
     6:55:00: Balanced after 1 trials
   
     7:00:00: Balanced after 3 trials
   
     7:05:00: Balanced after 1 trials
   
     7:10:00: Balanced after 1 trials
   
     7:15:00: Balanced after 1 trials
   
     7:20:00: Balanced after 1 trials
   
     7:25:00: Balanced after 1 trials
   
     7:30:00: Balanced after 1 trials
   
     7:35:00: Balanced after 1 trials
   
     7:40:00: Balanced after 1 trials
   
     7:45:00: Balanced after 1 trials
   
     7:50:00: Balanced after 1 trials
   
     7:55:00: Balanced after 1 trials
   
     8:00:00: Balanced after 3 trials
   
     8:05:00: Balanced after 1 trials
   
     8:10:00: Balanced after 1 trials
   
     8:15:00: Balanced after 1 trials
   
     8:20:00: Balanced after 1 trials
   
     8:25:00: Balanced after 1 trials
   
     8:30:00: Balanced after 1 trials
   
     8:35:00: Balanced after 1 trials
   
     8:40:00: Balanced after 1 trials
   
     8:45:00: Balanced after 1 trials
   
     8:50:00: Balanced after 1 trials
   
     8:55:00: Balanced after 1 trials
   
     9:00:00: Balanced after 3 trials
     9:00:00: Tank 3 is emptying at 35.46 ft
   
     9:05:00: Balanced after 2 trials
   
     9:10:00: Balanced after 2 trials
   
     9:15:00: Balanced after 2 trials
   
     9:20:00: Balanced after 2 trials
   
     9:25:00: Balanced after 2 trials
   
     9:30:00: Balanced after 2 trials
   
     9:35:00: Balanced after 2 trials
   
     9:40:00: Balanced after 2 trials
   
     9:45:00: Balanced after 2 trials
   
     9:50:00: Balanced after 2 trials
   
     9:55:00: Balanced after 2 trials
   
    10:00:00: Balanced after 3 trials
   
    10:05:00: Balanced after 2 trials
   
    10:10:00: Balanced after 2 trials
   
    10:15:00: Balanced after 2 trials
   
    10:20:00: Balanced after 2 trials
   
    10:25:00: Balanced after 2 trials
   
    10:30:00: Balanced after 2 trials
   
    10:35:00: Balanced after 2 trials
   
    10:40:00: Balanced after 2 trials
   
    10:45:00: Balanced after 1 trials
   
    10:50:00: Balanced after 1 trials
   
    10:55:00: Balanced after 1 trials
   
    11:00:00: Balanced after 3 trials
    11:00:00: Tank 1 is emptying at 23.55 ft
    11:00:00: Tank 2 is emptying at 29.64 ft
   
    11:05:00: Balanced after 1 trials
   
    11:10:00: Balanced after 1 trials
   
    11:15:00: Balanced after 1 trials
   
    11:20:00: Balanced after 1 trials
   
    11:25:00: Balanced after 1 trials
   
    11:30:00: Balanced after 1 trials
   
    11:35:00: Balanced after 1 trials
   
    11:40:00: Balanced after 1 trials
   
    11:45:00: Balanced after 1 trials
   
    11:50:00: Balanced after 1 trials
   
    11:55:00: Balanced after 1 trials
   
    12:00:00: Balanced after 2 trials
   
    12:05:00: Balanced after 1 trials
   
    12:10:00: Balanced after 1 trials
   
    12:15:00: Balanced after 1 trials
   
    12:20:00: Balanced after 1 trials
   
    12:25:00: Balanced after 1 trials
   
    12:30:00: Balanced after 1 trials
   
    12:35:00: Balanced after 1 trials
   
    12:40:00: Balanced after 1 trials
   
    12:45:00: Balanced after 1 trials
   
    12:50:00: Balanced after 1 trials
   
    12:55:00: Balanced after 1 trials
   
    13:00:00: Balanced after 3 trials
   
    13:05:00: Balanced after 1 trials
   
    13:10:00: Balanced after 1 trials
   
    13:15:00: Balanced after 1 trials
   
    13:20:00: Balanced after 1 trials
   
    13:25:00: Balanced after 1 trials
   
    13:30:00: Balanced after 1 trials
   
    13:35:00: Balanced after 1 trials
   
    13:40:00: Balanced after 1 trials
   
    13:45:00: Balanced after 1 trials
   
    13:50:00: Balanced after 1 trials
   
    13:55:00: Balanced after 1 trials
   
    14:00:00: Balanced after 4 trials
    14:00:00: Tank 1 is filling at 21.86 ft
    14:00:00: Tank 2 is filling at 28.01 ft
   
    14:05:00: Balanced after 2 trials
   
    14:10:00: Balanced after 2 trials
   
    14:15:00: Balanced after 2 trials
   
    14:20:00: Balanced after 2 trials
   
    14:25:00: Balanced after 2 trials
   
    14:30:00: Balanced after 2 trials
   
    14:35:00: Balanced after 2 trials
   
    14:40:00: Balanced after 2 trials
   
    14:45:00: Balanced after 2 trials
   
    14:50:00: Balanced after 2 trials
   
    14:55:00: Balanced after 2 trials
   
    15:00:00: Pump 10 changed by timer control
    15:00:00: Balanced after 4 trials
    15:00:00: Reservoir Lake is closed
    15:00:00: Tank 1 is emptying at 22.06 ft
    15:00:00: Pump 10 changed from open to closed
   
    15:05:00: Balanced after 2 trials
   
    15:10:00: Balanced after 2 trials
   
    15:15:00: Balanced after 2 trials
   
    15:20:00: Balanced after 2 trials
   
    15:25:00: Balanced after 2 trials
   
    15:30:00: Balanced after 2 trials
   
    15:35:00: Balanced after 2 trials
   
    15:40:00: Balanced after 2 trials
   
    15:45:00: Balanced after 2 trials
    15:45:00: Tank 2 is emptying at 28.51 ft
   
    15:50:00: Balanced after 2 trials
   
    15:55:00: Balanced after 2 trials
   
    16:00:00: Balanced after 4 trials
    16:00:00: Tank 2 is filling at 28.50 ft
   
    16:05:00: Balanced after 2 trials
   
    16:10:00: Balanced after 2 trials
   
    16:15:00: Balanced after 2 trials
   
    16:20:00: Balanced after 2 trials
   
    16:25:00: Balanced after 2 trials
   
    16:30:00: Balanced after 2 trials
   
    16:35:00: Balanced after 2 trials
   
    16:40:00: Balanced after 2 trials
   
    16:45:00: Balanced after 2 trials
   
    16:50:00: Balanced after 2 trials
   
    16:55:00: Balanced after 2 trials
   
    17:00:00: Balanced after 3 trials
   
    17:05:00: Balanced after 2 trials
    17:05:00: Tank 2 is closed at 29.03 ft
   
    17:10:00: Balanced after 1 trials
    17:10:00: Tank 2 is emptying at 29.03 ft
   
    17:15:00: Balanced after 1 trials
   
    17:20:00: Balanced after 1 trials
   
    17:25:00: Balanced after 1 trials
   
    17:30:00: Balanced after 1 trials
   
    17:35:00: Balanced after 1 trials
   
    17:40:00: Balanced after 1 trials
   
    17:45:00: Balanced after 1 trials
   
    17:50:00: Balanced after 1 trials
   
    17:55:00: Balanced after 1 trials
   
    18:00:00: Balanced after 3 trials
   
    18:05:00: Balanced after 1 trials
   
    18:10:00: Balanced after 1 trials
   
    18:15:00: Balanced after 1 trials
   
    18:20:00: Balanced after 1 trials
   
    18:25:00: Balanced after 1 trials
   
    18:30:00: Balanced after 1 trials
   
    18:35:00: Balanced after 1 trials
   
    18:40:00: Balanced after 1 trials
   
    18:45:00: Balanced after 1 trials
   
    18:50:00: Balanced after 1 trials
   
    18:55:00: Balanced after 1 trials
   
    19:00:00: Balanced after 3 trials
    19:00:00: Tank 2 is filling at 28.78 ft
   
    19:05:00: Balanced after 1 trials
   
    19:10:00: Balanced after 1 trials
    19:10:00: Tank 2 is emptying at 28.78 ft
   
    19:15:00: Balanced after 1 trials
   
    19:20:00: Balanced after 1 trials
   
    19:25:00: Balanced after 1 trials
   
    19:30:00: Balanced after 1 trials
   
    19:35:00: Balanced after 1 trials
   
    19:40:00: Balanced after 1 trials
   
    19:45:00: Balanced after 1 trials
   
    19:50:00: Balanced after 1 trials
   
    19:55:00: Balanced after 1 trials
   
    20:00:00: Balanced after 3 trials
   
    20:05:00: Balanced after 1 trials
   
    20:10:00: Balanced after 1 trials
   
    20:15:00: Balanced after 1 trials
   
    20:20:00: Balanced after 1 trials
   
    20:25:00: Balanced after 1 trials
   
    20:30:00: Balanced after 1 trials
   
    20:35:00: Balanced after 1 trials
   
    20:40:00: Balanced after 1 trials
   
    20:45:00: Balanced after 1 trials
   
    20:50:00: Balanced after 1 trials
   
    20:55:00: Balanced after 1 trials
   
    21:00:00: Balanced after 3 trials
   
    21:05:00: Balanced after 2 trials
   
    21:10:00: Balanced after 2 trials
   
    21:15:00: Balanced after 2 trials
   
    21:20:00: Balanced after 2 trials
   
    21:25:00: Balanced after 2 trials
   
    21:30:00: Balanced after 2 trials
   
    21:35:00: Balanced after 1 trials
   
    21:40:00: Balanced after 1 trials
   
    21:45:00: Balanced after 1 trials
   
    21:50:00: Balanced after 1 trials
   
    21:55:00: Balanced after 1 trials
   
    22:00:00: Balanced after 3 trials
   
    22:05:00: Balanced after 2 trials
   
    22:10:00: Balanced after 2 trials
   
    22:15:00: Balanced after 2 trials
   
    22:20:00: Balanced after 2 trials
   
    22:22:43: Pump 335 changed by Tank 1 control
    22:22:43: Pipe 330 changed by Tank 1 control
    22:22:43: Balanced after 5 trials
    22:22:43: Tank 3 is filling at 29.57 ft
    22:22:43: Pipe 330 changed from open to closed
    22:22:43: Pump 335 changed from closed to open
   
    22:25:00: Balanced after 2 trials
   
    22:30:00: Balanced after 2 trials
   
    22:35:00: Balanced after 2 trials
   
    22:40:00: Balanced after 2 trials
   
    22:45:00: Balanced after 2 trials
   
    22:50:00: Balanced after 2 trials
   
    22:55:00: Balanced after 2 trials
   
    23:00:00: Balanced after 4 trials
    23:00:00: Tank 1 is filling at 16.58 ft
   
    23:05:00: Balanced after 1 trials
   
    23:10:00: Balanced after 1 trials
   
    23:15:00: Balanced after 1 trials
   
    23:20:00: Balanced after 1 trials
   
    23:25:00: Balanced after 1 trials
   
    23:30:00: Balanced after 1 trials
   
    23:35:00: Balanced after 1 trials
   
    23:40:00: Balanced after 1 trials
   
    23:45:00: Balanced after 1 trials
   
    23:50:00: Balanced after 1 trials
   
    23:55:00: Balanced after 1 trials
   
    24:00:00: Balanced after 3 trials
   
   
  Node Results at 0:00:00 hrs:
  --------------------------------------------------------
                     Demand      Head  Pressure  Chemical
  Node                  gpm        ft       psi      mg/L
  --------------------------------------------------------
  10                   0.00    145.76     -0.54      0.00
  15                 640.07    123.83     39.79      0.00
  20                   0.00    158.00     12.57      0.00
  35                1490.32    146.66     58.13      0.00
  40                   0.00    145.00      5.68      0.00
  50                   0.00    140.00     10.18      0.00
  60                   0.00    209.02     90.57      0.00
  601                  0.00    302.54    131.09      0.00
  61                   0.00    302.54    131.09      0.00
  101                279.23    145.76     44.96      0.00
  103                195.80    145.74     44.52      0.00
  105                198.99    147.10     51.39      0.00
  107                 80.32    147.10     54.20      0.00
  109                340.16    145.75     54.36      0.00
  111                208.65    146.62     59.20      0.00
  113                 29.41    146.72     62.71      0.00
  115                 76.59    147.34     57.77      0.00
  117                173.03    150.33     59.25      0.00
  119                258.91    157.90     67.55      0.00
  120                  0.00    155.44     67.35      0.00
  121                 61.20    161.26     70.74      0.00
  123                  0.00    165.72     67.04      0.00
  125                 67.03    160.63     64.84      0.00
  127                 25.96    158.80     44.54      0.00
  129                  0.00    158.79     46.70      0.00
  131                 62.84    158.76     66.19      0.00
  139                  8.66    152.77     52.76      0.00
  141                 14.48    148.51     62.62      0.00
  143                  9.11    137.02     61.32      0.00
  145                 40.62    149.82     64.48      0.00
  147                 12.57    150.81     57.33      0.00
  149                 39.79    151.24     58.60      0.00
  151                212.39    155.44     52.84      0.00
  153                 64.93    155.53     38.71      0.00
  157                 76.13    155.58     61.74      0.00
  159                 60.74    152.39     63.43      0.00
  161                 23.23    150.23     63.36      0.00
  163                 13.85    149.80     62.74      0.00
  164                  0.00    149.80     62.74      0.00
  166                  3.82    149.80     65.77      0.00
  167                 21.40    148.04     66.31      0.00
  169                  0.00    148.04     66.31      0.00
  171                 57.83    147.03     65.44      0.00
  173                  0.00    147.02     65.43      0.00
  177                 85.51    146.62     60.06      0.00
  179                  0.00    146.58     60.05      0.00
  181                  0.00    146.66     60.08      0.00
  183                  0.00    146.58     58.75      0.00
  184                  0.00    145.52     56.12      0.00
  185                 37.71    145.98     56.32      0.00
  187                  0.00    146.50     58.06      0.00
  189                158.64    146.83     61.89      0.00
  191                120.39    146.63     52.70      0.00
  193                104.83    146.74     55.78      0.00
  195                  0.00    146.82     56.90      0.00
  197                 25.05    146.62     53.57      0.00
  199                175.40    142.69     62.69      0.00
  201                 65.58    142.11     61.53      0.00
  203               3706.05    141.99     60.66      0.00
  204                  0.00    146.32     54.30      0.00
  205                 96.08    142.60     52.69      0.00
  206                  0.00    141.47     60.87      0.00
  207                102.00    141.88     57.58      0.00
  208                  0.00    141.01     54.17      0.00
  209                  1.28    140.21     61.62      0.00
  211                 12.74    139.95     57.61      0.00
  213                 20.49    139.86     57.57      0.00
  215                135.52    139.63     57.47      0.00
  217                 35.60    139.60     57.89      0.00
  219                 60.74    139.59     58.75      0.00
  225                 33.52    139.60     57.02      0.00
  229                 94.34    139.60     55.94      0.00
  231                 24.23    139.59     58.32      0.00
  237                 22.95    139.66     54.45      0.00
  239                 65.58    139.63     54.87      0.00
  241                  0.00    139.63     54.87      0.00
  243                  6.38    139.63     54.43      0.00
  247                103.46    139.63     52.70      0.00
  249                  0.00    139.63     52.70      0.00
  251                 35.52    139.63     47.50      0.00
  253                 80.14    139.59     44.89      0.00
  255                 59.37    139.66     48.81      0.00
  257                  0.00    152.31     58.63      0.00
  259                  0.00    151.87     54.97      0.00
  261                  0.00    150.28     65.12      0.00
  263                  0.00    150.12     65.05      0.00
  265                  0.00    148.59     64.39      0.00
  267                  0.00    146.85     54.53      0.00
  269                  0.00    147.31     63.83      0.00
  271                  0.00    146.77     60.99      0.00
  273                  0.00    142.61     58.33      0.00
  275                  0.00    142.09     57.23      0.00
  River           -13149.48    220.00      0.00      0.00  Reservoir
  Lake                 0.00    167.00      0.00      0.00  Reservoir
  1                  704.99    145.00      5.68      0.00  Tank
  2                 -218.99    140.00     10.18      0.00  Tank
  3                 2346.32    158.00     12.57      0.00  Tank
   
   
  Link Results at 0:00:00 hrs:
  ----------------------------------------------
                       Flow  Velocity  Headloss
  Link                  gpm       fps   /1000ft
  ----------------------------------------------
  20               -2346.32      0.10      0.00
  40                -704.99      0.03      0.00
  50                 218.99      0.01      0.00
  60               13149.48      9.33      8.92
  101                  0.00      0.00      0.00
  103                148.23      0.24      0.02
  105               -427.46      1.21      0.53
  107                 13.16      0.04      0.00
  109                -47.57      0.08      0.00
  111               -387.73      1.10      0.44
  112                464.80      1.32      0.61
  113               -131.65      0.37      0.06
  114                109.90      0.70      0.31
  115                -67.16      0.43      0.12
  116                -51.16      0.15      0.01
  117                639.61      1.81      1.11
  119               -718.45      2.04      1.37
  120               1165.06      3.31      3.36
  121               1041.69      2.96      2.73
  122                366.03      2.34      2.84
  123               9680.89      4.39      1.68
  125              13149.48      5.97      2.97
  129               3041.35      2.16      0.68
  131               2753.03      1.95      0.57
  133              -2346.32      2.40      1.02
  135                380.75      0.27      0.01
  137                 62.84      0.10      0.00
  145                317.91      2.03      2.19
  147                309.25      1.97      2.08
  149               -649.18      4.14      8.21
  151               -640.07      4.09      7.99
  153                354.41      1.01      0.37
  155                395.03      1.12      0.45
  159               -407.60      1.16      0.48
  161               -447.39      2.86      4.12
  163               -156.36      0.44      0.08
  169                221.29      1.41      1.12
  171                503.41      1.43      0.71
  173               7753.51      3.52      1.12
  175               7677.38      3.48      1.10
  177               7616.64      3.46      1.08
  179               7335.50      3.33      1.01
  180                  3.82      0.01      0.00
  181                  3.82      0.01      0.00
  183               7097.73      3.22      0.95
  185                -21.40      0.14      0.01
  186                287.99      1.84      1.82
  187               6431.29      2.92      0.79
  189               4240.76      1.92      0.36
  191              -2132.70      1.51      0.35
  193              -1490.32      1.06      0.18
  195                772.96      2.19      1.57
  197                687.45      1.95      1.27
  199                -17.54      0.05      0.00
  201               -704.99      2.00      1.33
  202                477.22      3.05      4.64
  203                226.94      1.45      1.17
  204                477.22      1.35      0.64
  205                287.99      0.82      0.25
  207                244.48      0.69      0.19
  209                167.19      1.07      0.67
  211                645.04      1.83      1.13
  213                120.80      0.34      0.05
  215                 55.85      0.16      0.01
  217               -266.17      0.76      0.22
  219               -257.91      0.73      0.21
  221                257.91      1.65      1.48
  223                -24.98      0.07      0.00
  225                  0.07      0.00      0.00
  229               4240.76      3.01      1.08
  231               3891.56      2.76      0.92
  233               3706.05      2.63      0.98
  235                173.79      0.49      0.10
  237                459.57      1.30      0.60
  238                572.87      1.63      0.90
  239                215.30      0.61      0.15
  240                572.87      1.63      0.90
  241                572.87      1.63      0.90
  243                571.59      0.91      0.22
  245                351.53      0.56      0.09
  247                265.38      0.42      0.05
  249                129.86      0.21      0.01
  251                 60.74      0.13      0.01
  257                 33.52      0.10      0.00
  261                 65.66      0.42      0.12
  263                 24.23      0.07      0.00
  269                207.31      0.59      0.14
  271                 52.91      0.34      0.08
  273                131.46      0.37      0.06
  275                 28.63      0.08      0.00
  277                  6.38      0.02      0.00
  281                 22.25      0.09      0.01
  283                 37.25      0.11      0.01
  285                -32.59      0.09      0.00
  287                -48.62      0.20      0.02
  289                218.99      0.89      0.37
  291                 80.14      0.33      0.06
  293                 30.86      0.20      0.03
  295                  4.66      0.01      0.00
  297                489.40      3.12      4.86
  299                235.17      1.50      1.25
  301                235.17      1.50      1.25
  303                254.23      1.62      1.45
  305                150.21      0.43      0.08
  307                404.44      1.15      0.47
  309                220.09      1.40      1.11
  311               -164.25      0.47      0.09
  313                514.47      1.46      0.74
  315              -2263.28      1.61      0.39
  317                 95.36      0.61      0.24
  319                 78.43      0.22      0.02
  321               7317.83      3.32      1.00
  323                119.94      0.34      0.05
  325                130.57      0.83      0.42
  329              13149.48      5.97      3.01
  330                  0.00      0.00      0.00
  333                 -0.00      0.00      0.00
  10                   0.00      0.00      0.00  Pump
  335              13149.48      0.00    -93.52  Pump
   
   
  Node Results at 0:05:00 hrs:
  --------------------------------------------------------
                     Demand      Head  Pressure  Chemical
  Node                  gpm        ft       psi      mg/L
  --------------------------------------------------------
  10                   0.00    145.82     -0.51      0.00
  15                 640.07    123.90     39.82      0.00
  20                   0.00    158.07     12.60      0.00
  35                1490.32    146.72     58.16      0.00
  40                   0.00    145.08      5.71      0.00
  50                   0.00    139.93     10.15      0.00
  60                   0.00    209.03     90.57      0.00
  601                  0.00    302.56    131.10      0.00
  61                   0.00    302.56    131.10      0.00
  101                279.23    145.82     44.99      0.00
  103                195.80    145.80     44.54      0.00
  105                198.99    147.16     51.41      0.00
  107                 80.32    147.15     54.23      0.00
  109                340.16    145.81     54.38      0.00
  111                208.65    146.68     59.22      0.00
  113                 29.41    146.78     62.73      0.00
  115                 76.59    147.39     57.80      0.00
  117                173.03    150.39     59.27      0.00
  119                258.91    157.96     67.58      0.00
  120                  0.00    155.50     67.38      0.00
  121                 61.20    161.33     70.77      0.00
  123                  0.00    165.78     67.07      0.00
  125                 67.03    160.70     64.86      0.00
  127                 25.96    158.87     44.57      0.00
  129                  0.00    158.86     46.74      0.00
  131                 62.84    158.84     66.22      0.00
  139                  8.66    152.84     52.79      0.00
  141                 14.48    148.58     62.65      0.00
  143                  9.11    137.09     61.35      0.00
  145                 40.62    149.88     64.51      0.00
  147                 12.57    150.88     57.36      0.00
  149                 39.79    151.30     58.63      0.00
  151                212.39    155.50     52.86      0.00
  153                 64.93    155.60     38.74      0.00
  157                 76.13    155.64     61.76      0.00
  159                 60.74    152.45     63.46      0.00
  161                 23.23    150.29     63.39      0.00
  163                 13.85    149.86     62.77      0.00
  164                  0.00    149.86     62.77      0.00
  166                  3.82    149.86     65.80      0.00
  167                 21.40    148.09     66.33      0.00
  169                  0.00    148.09     66.34      0.00
  171                 57.83    147.09     65.47      0.00
  173                  0.00    147.07     65.46      0.00
  177                 85.51    146.67     60.09      0.00
  179                  0.00    146.64     60.07      0.00
  181                  0.00    146.72     60.11      0.00
  183                  0.00    146.64     58.77      0.00
  184                  0.00    145.57     56.14      0.00
  185                 37.71    146.04     56.34      0.00
  187                  0.00    146.56     58.09      0.00
  189                158.64    146.89     61.91      0.00
  191                120.39    146.69     52.73      0.00
  193                104.83    146.80     55.81      0.00
  195                  0.00    146.87     56.92      0.00
  197                 25.05    146.68     53.59      0.00
  199                175.40    142.73     62.71      0.00
  201                 65.58    142.15     61.55      0.00
  203               3706.05    142.03     60.67      0.00
  204                  0.00    146.37     54.32      0.00
  205                 96.08    142.64     52.71      0.00
  206                  0.00    141.49     60.88      0.00
  207                102.00    141.91     57.59      0.00
  208                  0.00    141.02     54.17      0.00
  209                  1.28    140.20     61.61      0.00
  211                 12.74    139.92     57.60      0.00
  213                 20.49    139.83     57.56      0.00
  215                135.52    139.60     57.46      0.00
  217                 35.60    139.58     57.88      0.00
  219                 60.74    139.57     58.74      0.00
  225                 33.52    139.57     57.01      0.00
  229                 94.34    139.56     55.92      0.00
  231                 24.23    139.56     58.30      0.00
  237                 22.95    139.62     54.43      0.00
  239                 65.58    139.58     54.85      0.00
  241                  0.00    139.58     54.85      0.00
  243                  6.38    139.58     54.42      0.00
  247                103.46    139.58     52.68      0.00
  249                  0.00    139.58     52.68      0.00
  251                 35.52    139.58     47.48      0.00
  253                 80.14    139.54     44.87      0.00
  255                 59.37    139.61     48.79      0.00
  257                  0.00    152.37     58.65      0.00
  259                  0.00    151.93     55.00      0.00
  261                  0.00    150.34     65.14      0.00
  263                  0.00    150.18     65.07      0.00
  265                  0.00    148.65     64.41      0.00
  267                  0.00    146.90     54.55      0.00
  269                  0.00    147.37     63.85      0.00
  271                  0.00    146.82     61.02      0.00
  273                  0.00    142.66     58.35      0.00
  275                  0.00    142.13     57.25      0.00
  River           -13147.36    220.00      0.00      0.00  Reservoir
  Lake                 0.00    167.00      0.00      0.00  Reservoir
  1                  699.10    145.08      5.71      0.00  Tank
  2                 -210.54    139.93     10.15      0.00  Tank
  3                 2341.64    158.07     12.60      0.00  Tank
   
   
  Link Results at 0:05:00 hrs:
  ----------------------------------------------
                       Flow  Velocity  Headloss
  Link                  gpm       fps   /1000ft
  ----------------------------------------------
  20               -2341.64      0.10      0.00
  40                -699.10      0.03      0.00
  50                 210.54      0.01      0.00
  60               13147.36      9.32      8.91
  101                  0.00      0.00      0.00
  103                148.31      0.24      0.02
  105               -427.53      1.21      0.53
  107                 13.20      0.04      0.00
  109                -47.50      0.08      0.00
  111               -387.66      1.10      0.44
  112                464.97      1.32      0.61
  113               -131.66      0.37      0.06
  114                109.95      0.70      0.31
  115                -67.12      0.43      0.12
  116                -51.12      0.15      0.01
  117                639.73      1.81      1.11
  119               -718.63      2.04      1.37
  120               1165.28      3.31      3.36
  121               1041.89      2.96      2.73
  122                366.12      2.34      2.84
  123               9683.25      4.40      1.68
  125              13147.36      5.97      2.97
  129               3036.81      2.15      0.68
  131               2748.44      1.95      0.56
  133              -2341.64      2.39      1.02
  135                380.84      0.27      0.01
  137                 62.84      0.10      0.00
  145                317.99      2.03      2.19
  147                309.34      1.97      2.08
  149               -649.18      4.14      8.21
  151               -640.07      4.09      7.99
  153                354.33      1.01      0.37
  155                394.94      1.12      0.45
  159               -407.51      1.16      0.48
  161               -447.31      2.86      4.12
  163               -156.41      0.44      0.08
  169                221.34      1.41      1.12
  171                503.28      1.43      0.71
  173               7755.77      3.52      1.12
  175               7679.64      3.49      1.10
  177               7618.90      3.46      1.08
  179               7337.74      3.33      1.01
  180                  3.82      0.01      0.00
  181                  3.82      0.01      0.00
  183               7100.02      3.22      0.95
  185                -21.40      0.14      0.01
  186                288.49      1.84      1.83
  187               6433.80      2.92      0.79
  189               4248.03      1.93      0.37
  191              -2127.94      1.51      0.35
  193              -1490.32      1.06      0.18
  195                768.20      2.18      1.55
  197                682.70      1.94      1.25
  199                -16.41      0.05      0.00
  201               -699.10      1.98      1.31
  202                478.40      3.05      4.66
  203                227.61      1.45      1.18
  204                478.40      1.36      0.65
  205                288.49      0.82      0.25
  207                244.02      0.69      0.19
  209                167.38      1.07      0.67
  211                644.81      1.83      1.12
  213                121.11      0.34      0.05
  215                 55.81      0.16      0.01
  217               -266.23      0.76      0.22
  219               -257.93      0.73      0.21
  221                257.93      1.65      1.49
  223                -24.73      0.07      0.00
  225                  0.32      0.00      0.00
  229               4248.03      3.01      1.09
  231               3896.63      2.76      0.93
  233               3706.05      2.63      0.98
  235                176.00      0.50      0.10
  237                462.87      1.31      0.61
  238                581.32      1.65      0.93
  239                220.45      0.63      0.15
  240                581.32      1.65      0.93
  241                581.32      1.65      0.93
  243                580.04      0.93      0.23
  245                353.27      0.56      0.09
  247                265.38      0.42      0.05
  249                129.86      0.21      0.01
  251                 60.74      0.13      0.01
  257                 33.52      0.10      0.00
  261                 67.40      0.43      0.12
  263                 24.23      0.07      0.00
  269                214.03      0.61      0.15
  271                 51.17      0.33      0.07
  273                139.91      0.40      0.07
  275                 31.79      0.09      0.00
  277                  6.38      0.02      0.00
  281                 25.41      0.10      0.01
  283                 42.54      0.12      0.01
  285                -34.65      0.10      0.00
  287                -43.40      0.18      0.02
  289                210.54      0.86      0.34
  291                 80.14      0.33      0.06
  293                 27.62      0.18      0.02
  295                  7.89      0.02      0.00
  297                489.50      3.12      4.86
  299                235.21      1.50      1.25
  301                235.21      1.50      1.25
  303                254.28      1.62      1.45
  305                150.23      0.43      0.08
  307                404.51      1.15      0.47
  309                220.06      1.40      1.11
  311               -164.25      0.47      0.09
  313                514.23      1.46      0.74
  315              -2258.52      1.60      0.39
  317                 95.45      0.61      0.24
  319                 80.55      0.23      0.02
  321               7320.07      3.32      1.00
  323                125.00      0.35      0.05
  325                130.58      0.83      0.42
  329              13147.36      5.97      3.01
  330                  0.00      0.00      0.00
  333                 -0.00      0.00      0.00
  10                   0.00      0.00      0.00  Pump
  335              13147.37      0.00    -93.54  Pump
   
   
  Node Results at 0:10:00 hrs:
  --------------------------------------------------------
                     Demand      Head  Pressure  Chemical
  Node                  gpm        ft       psi      mg/L
  --------------------------------------------------------
  10                   0.00    145.88     -0.49      0.00
  15                 640.07    123.97     39.85      0.00
  20                   0.00    158.15     12.63      0.00
  35                1490.32    146.77     58.18      0.00
  40                   0.00    145.17      5.75      0.00
  50                   0.00    139.85     10.12      0.00
  60                   0.00    209.03     90.57      0.00
  601                  0.00    302.58    131.11      0.00
  61                   0.00    302.58    131.11      0.00
  101                279.23    145.88     45.01      0.00
  103                195.80    145.86     44.57      0.00
  105                198.99    147.21     51.44      0.00
  107                 80.32    147.21     54.26      0.00
  109                340.16    145.86     54.41      0.00
  111                208.65    146.74     59.25      0.00
  113                 29.41    146.84     62.76      0.00
  115                 76.59    147.45     57.83      0.00
  117                173.03    150.45     59.30      0.00
  119                258.91    158.02     67.60      0.00
  120                  0.00    155.57     67.41      0.00
  121                 61.20    161.39     70.80      0.00
  123                  0.00    165.84     67.09      0.00
  125                 67.03    160.76     64.89      0.00
  127                 25.96    158.94     44.61      0.00
  129                  0.00    158.93     46.77      0.00
  131                 62.84    158.91     66.25      0.00
  139                  8.66    152.91     52.82      0.00
  141                 14.48    148.65     62.67      0.00
  143                  9.11    137.16     61.38      0.00
  145                 40.62    149.95     64.54      0.00
  147                 12.57    150.94     57.39      0.00
  149                 39.79    151.37     58.65      0.00
  151                212.39    155.57     52.89      0.00
  153                 64.93    155.66     38.76      0.00
  157                 76.13    155.70     61.79      0.00
  159                 60.74    152.51     63.48      0.00
  161                 23.23    150.35     63.41      0.00
  163                 13.85    149.91     62.79      0.00
  164                  0.00    149.91     62.79      0.00
  166                  3.82    149.91     65.82      0.00
  167                 21.40    148.15     66.36      0.00
  169                  0.00    148.15     66.36      0.00
  171                 57.83    147.15     65.49      0.00
  173                  0.00    147.13     65.48      0.00
  177                 85.51    146.73     60.11      0.00
  179                  0.00    146.70     60.10      0.00
  181                  0.00    146.78     60.13      0.00
  183                  0.00    146.70     58.80      0.00
  184                  0.00    145.62     56.17      0.00
  185                 37.71    146.09     56.37      0.00
  187                  0.00    146.61     58.11      0.00
  189                158.64    146.95     61.94      0.00
  191                120.39    146.74     52.75      0.00
  193                104.83    146.86     55.83      0.00
  195                  0.00    146.93     56.95      0.00
  197                 25.05    146.74     53.62      0.00
  199                175.40    142.77     62.73      0.00
  201                 65.58    142.19     61.57      0.00
  203               3706.05    142.07     60.69      0.00
  204                  0.00    146.43     54.35      0.00
  205                 96.08    142.68     52.72      0.00
  206                  0.00    141.51     60.88      0.00
  207                102.00    141.94     57.60      0.00
  208                  0.00    141.03     54.17      0.00
  209                  1.28    140.18     61.61      0.00
  211                 12.74    139.90     57.59      0.00
  213                 20.49    139.81     57.55      0.00
  215                135.52    139.58     57.45      0.00
  217                 35.60    139.56     57.87      0.00
  219                 60.74    139.54     58.73      0.00
  225                 33.52    139.55     57.00      0.00
  229                 94.34    139.52     55.91      0.00
  231                 24.23    139.52     58.29      0.00
  237                 22.95    139.58     54.41      0.00
  239                 65.58    139.54     54.83      0.00
  241                  0.00    139.54     54.83      0.00
  243                  6.38    139.54     54.40      0.00
  247                103.46    139.54     52.66      0.00
  249                  0.00    139.54     52.66      0.00
  251                 35.52    139.54     47.46      0.00
  253                 80.14    139.50     44.84      0.00
  255                 59.37    139.56     48.77      0.00
  257                  0.00    152.43     58.68      0.00
  259                  0.00    151.99     55.02      0.00
  261                  0.00    150.40     65.17      0.00
  263                  0.00    150.24     65.10      0.00
  265                  0.00    148.71     64.44      0.00
  267                  0.00    146.96     54.58      0.00
  269                  0.00    147.42     63.88      0.00
  271                  0.00    146.88     61.04      0.00
  273                  0.00    142.70     58.36      0.00
  275                  0.00    142.17     57.27      0.00
  River           -13145.25    220.00      0.00      0.00  Reservoir
  Lake                 0.00    167.00      0.00      0.00  Reservoir
  1                  693.36    145.17      5.75      0.00  Tank
  2                 -202.29    139.85     10.12      0.00  Tank
  3                 2337.02    158.15     12.63      0.00  Tank
   
   
  Link Results at 0:10:00 hrs:
  ----------------------------------------------
                       Flow  Velocity  Headloss
  Link                  gpm       fps   /1000ft
  ----------------------------------------------
  20               -2337.02      0.10      0.00
  40                -693.36      0.03      0.00
  50                 202.29      0.01      0.00
  60               13145.25      9.32      8.91
  101                  0.00      0.00      0.00
  103                148.38      0.24      0.02
  105               -427.61      1.21      0.53
  107                 13.24      0.04      0.00
  109                -47.42      0.08      0.00
  111               -387.58      1.10      0.44
  112                465.15      1.32      0.61
  113               -131.66      0.37      0.06
  114                110.00      0.70      0.31
  115                -67.08      0.43      0.12
  116                -51.08      0.14      0.01
  117                639.84      1.82      1.11
  119               -718.81      2.04      1.38
  120               1165.49      3.31      3.37
  121               1042.09      2.96      2.74
  122                366.19      2.34      2.84
  123               9685.54      4.40      1.68
  125              13145.25      5.97      2.97
  129               3032.32      2.15      0.68
  131               2743.90      1.95      0.56
  133              -2337.02      2.39      1.01
  135                380.92      0.27      0.01
  137                 62.84      0.10      0.00
  145                318.08      2.03      2.19
  147                309.42      1.97      2.08
  149               -649.18      4.14      8.21
  151               -640.07      4.09      7.99
  153                354.25      1.00      0.37
  155                394.86      1.12      0.45
  159               -407.43      1.16      0.48
  161               -447.22      2.85      4.12
  163               -156.45      0.44      0.08
  169                221.38      1.41      1.12
  171                503.15      1.43      0.71
  173               7757.99      3.52      1.12
  175               7681.86      3.49      1.10
  177               7621.12      3.46      1.08
  179               7339.95      3.33      1.01
  180                  3.82      0.01      0.00
  181                  3.82      0.01      0.00
  183               7102.25      3.22      0.95
  185                -21.40      0.14      0.01
  186                288.99      1.84      1.83
  187               6436.25      2.92      0.79
  189               4255.13      1.93      0.37
  191              -2123.30      1.51      0.35
  193              -1490.32      1.06      0.18
  195                763.57      2.17      1.54
  197                678.06      1.92      1.23
  199                -15.30      0.04      0.00
  201               -693.36      1.97      1.29
  202                479.55      3.06      4.68
  203                228.27      1.46      1.18
  204                479.55      1.36      0.65
  205                288.99      0.82      0.25
  207                243.57      0.69      0.19
  209                167.56      1.07      0.67
  211                644.60      1.83      1.12
  213                121.43      0.34      0.05
  215                 55.77      0.16      0.01
  217               -266.29      0.76      0.22
  219               -257.95      0.73      0.21
  221                257.95      1.65      1.49
  223                -24.47      0.07      0.00
  225                  0.57      0.00      0.00
  229               4255.13      3.02      1.09
  231               3901.55      2.77      0.93
  233               3706.05      2.63      0.98
  235                178.17      0.51      0.10
  237                466.11      1.32      0.62
  238                589.57      1.67      0.95
  239                225.46      0.64      0.16
  240                589.57      1.67      0.95
  241                589.57      1.67      0.95
  243                588.29      0.94      0.23
  245                354.98      0.57      0.09
  247                265.38      0.42      0.05
  249                129.86      0.21      0.01
  251                 60.74      0.13      0.01
  257                 33.52      0.10      0.00
  261                 69.11      0.44      0.13
  263                 24.23      0.07      0.00
  269                220.56      0.63      0.15
  271                 49.46      0.32      0.07
  273                148.16      0.42      0.07
  275                 34.88      0.10      0.00
  277                  6.38      0.02      0.00
  281                 28.50      0.12      0.01
  283                 47.70      0.14      0.01
  285                -36.78      0.10      0.00
  287                -38.18      0.16      0.01
  289                202.29      0.83      0.32
  291                 80.14      0.33      0.06
  293                 24.60      0.16      0.02
  295                 10.92      0.03      0.00
  297                489.59      3.12      4.87
  299                235.26      1.50      1.25
  301                235.26      1.50      1.25
  303                254.33      1.62      1.45
  305                150.25      0.43      0.08
  307                404.58      1.15      0.47
  309                220.02      1.40      1.11
  311               -164.25      0.47      0.09
  313                514.00      1.46      0.74
  315              -2253.89      1.60      0.39
  317                 95.54      0.61      0.24
  319                 82.64      0.23      0.03
  321               7322.28      3.32      1.00
  323                129.93      0.37      0.06
  325                130.60      0.83      0.42
  329              13145.25      5.97      3.01
  330                  0.00      0.00      0.00
  333                 -0.00      0.00      0.00
  10                   0.00      0.00      0.00  Pump
  335              13145.25      0.00    -93.55  Pump
   
   
  Node Results at 0:15:00 hrs:
  --------------------------------------------------------
                     Demand      Head  Pressure  Chemical
  Node                  gpm        ft       psi      mg/L
  --------------------------------------------------------
  10                   0.00    145.94     -0.46      0.00
  15                 640.07    124.03     39.88      0.00
  20                   0.00    158.22     12.66      0.00
  35                1490.32    146.83     58.21      0.00
  40                   0.00    145.25      5.78      0.00
  50                   0.00    139.78     10.09      0.00
  60                   0.00    209.03     90.57      0.00
  601                  0.00    302.61    131.12      0.00
  61                   0.00    302.61    131.12      0.00
  101                279.23    145.94     45.04      0.00
  103                195.80    145.91     44.59      0.00
  105                198.99    147.27     51.46      0.00
  107                 80.32    147.27     54.28      0.00
  109                340.16    145.92     54.43      0.00
  111                208.65    146.80     59.27      0.00
  113                 29.41    146.90     62.78      0.00
  115                 76.59    147.51     57.85      0.00
  117                173.03    150.51     59.32      0.00
  119                258.91    158.09     67.63      0.00
  120                  0.00    155.63     67.43      0.00
  121                 61.20    161.46     70.83      0.00
  123                  0.00    165.90     67.12      0.00
  125                 67.03    160.83     64.92      0.00
  127                 25.96    159.02     44.64      0.00
  129                  0.00    159.00     46.80      0.00
  131                 62.84    158.98     66.29      0.00
  139                  8.66    152.98     52.85      0.00
  141                 14.48    148.71     62.70      0.00
  143                  9.11    137.22     61.41      0.00
  145                 40.62    150.01     64.57      0.00
  147                 12.57    151.01     57.42      0.00
  149                 39.79    151.43     58.68      0.00
  151                212.39    155.63     52.92      0.00
  153                 64.93    155.72     38.79      0.00
  157                 76.13    155.76     61.82      0.00
  159                 60.74    152.57     63.51      0.00
  161                 23.23    150.41     63.44      0.00
  163                 13.85    149.97     62.82      0.00
  164                  0.00    149.97     62.82      0.00
  166                  3.82    149.97     65.85      0.00
  167                 21.40    148.21     66.38      0.00
  169                  0.00    148.21     66.38      0.00
  171                 57.83    147.20     65.52      0.00
  173                  0.00    147.18     65.51      0.00
  177                 85.51    146.79     60.14      0.00
  179                  0.00    146.76     60.12      0.00
  181                  0.00    146.84     60.16      0.00
  183                  0.00    146.76     58.82      0.00
  184                  0.00    145.68     56.19      0.00
  185                 37.71    146.15     56.39      0.00
  187                  0.00    146.67     58.14      0.00
  189                158.64    147.00     61.96      0.00
  191                120.39    146.80     52.78      0.00
  193                104.83    146.91     55.86      0.00
  195                  0.00    146.99     56.97      0.00
  197                 25.05    146.80     53.64      0.00
  199                175.40    142.82     62.75      0.00
  201                 65.58    142.23     61.58      0.00
  203               3706.05    142.11     60.71      0.00
  204                  0.00    146.49     54.37      0.00
  205                 96.08    142.72     52.74      0.00
  206                  0.00    141.53     60.89      0.00
  207                102.00    141.97     57.62      0.00
  208                  0.00    141.03     54.18      0.00
  209                  1.28    140.17     61.60      0.00
  211                 12.74    139.88     57.58      0.00
  213                 20.49    139.79     57.54      0.00
  215                135.52    139.56     57.44      0.00
  217                 35.60    139.54     57.86      0.00
  219                 60.74    139.52     58.72      0.00
  225                 33.52    139.53     56.99      0.00
  229                 94.34    139.49     55.89      0.00
  231                 24.23    139.49     58.27      0.00
  237                 22.95    139.54     54.40      0.00
  239                 65.58    139.50     54.81      0.00
  241                  0.00    139.50     54.81      0.00
  243                  6.38    139.50     54.38      0.00
  247                103.46    139.50     52.64      0.00
  249                  0.00    139.50     52.64      0.00
  251                 35.52    139.49     47.44      0.00
  253                 80.14    139.45     44.82      0.00
  255                 59.37    139.51     48.75      0.00
  257                  0.00    152.49     58.71      0.00
  259                  0.00    152.05     55.05      0.00
  261                  0.00    150.46     65.19      0.00
  263                  0.00    150.30     65.12      0.00
  265                  0.00    148.77     64.46      0.00
  267                  0.00    147.02     54.60      0.00
  269                  0.00    147.48     63.90      0.00
  271                  0.00    146.94     61.07      0.00
  273                  0.00    142.74     58.38      0.00
  275                  0.00    142.21     57.29      0.00
  River           -13143.14    220.00      0.00      0.00  Reservoir
  Lake                 0.00    167.00      0.00      0.00  Reservoir
  1                  687.76    145.25      5.78      0.00  Tank
  2                 -194.23    139.78     10.09      0.00  Tank
  3                 2332.45    158.22     12.66      0.00  Tank
   
   
  Link Results at 0:15:00 hrs:
  ----------------------------------------------
                       Flow  Velocity  Headloss
  Link                  gpm       fps   /1000ft
  ----------------------------------------------
  20               -2332.45      0.10      0.00
  40                -687.76      0.03      0.00
  50                 194.23      0.01      0.00
  60               13143.14      9.32      8.91
  101                  0.00      0.00      0.00
  103                148.45      0.24      0.02
  105               -427.68      1.21      0.53
  107                 13.28      0.04      0.00
  109                -47.35      0.08      0.00
  111               -387.51      1.10      0.44
  112                465.32      1.32      0.61
  113               -131.67      0.37      0.06
  114                110.04      0.70      0.31
  115                -67.04      0.43      0.12
  116                -51.04      0.14      0.01
  117                639.96      1.82      1.11
  119               -718.98      2.04      1.38
  120               1165.70      3.31      3.37
  121               1042.29      2.96      2.74
  122                366.27      2.34      2.84
  123               9687.80      4.40      1.69
  125              13143.14      5.97      2.97
  129               3027.87      2.15      0.67
  131               2739.41      1.94      0.56
  133              -2332.45      2.38      1.01
  135                381.00      0.27      0.01
  137                 62.84      0.10      0.00
  145                318.16      2.03      2.19
  147                309.50      1.98      2.08
  149               -649.18      4.14      8.21
  151               -640.07      4.09      7.99
  153                354.16      1.00      0.37
  155                394.78      1.12      0.45
  159               -407.35      1.16      0.48
  161               -447.14      2.85      4.11
  163               -156.50      0.44      0.08
  169                221.43      1.41      1.12
  171                503.03      1.43      0.71
  173               7760.17      3.52      1.12
  175               7684.03      3.49      1.10
  177               7623.29      3.46      1.08
  179               7342.10      3.33      1.01
  180                  3.82      0.01      0.00
  181                  3.82      0.01      0.00
  183               7104.44      3.22      0.95
  185                -21.40      0.14      0.01
  186                289.48      1.85      1.84
  187               6438.66      2.92      0.79
  189               4262.06      1.93      0.37
  191              -2118.77      1.50      0.35
  193              -1490.32      1.06      0.18
  195                759.05      2.15      1.52
  197                673.54      1.91      1.22
  199                -14.22      0.04      0.00
  201               -687.76      1.95      1.27
  202                480.68      3.07      4.70
  203                228.91      1.46      1.19
  204                480.68      1.36      0.65
  205                289.48      0.82      0.26
  207                243.13      0.69      0.18
  209                167.75      1.07      0.67
  211                644.38      1.83      1.12
  213                121.73      0.35      0.05
  215                 55.74      0.16      0.01
  217               -266.35      0.76      0.22
  219               -257.96      0.73      0.21
  221                257.96      1.65      1.49
  223                -24.23      0.07      0.00
  225                  0.82      0.00      0.00
  229               4262.06      3.02      1.09
  231               3906.35      2.77      0.93
  233               3706.05      2.63      0.98
  235                180.31      0.51      0.11
  237                469.29      1.33      0.62
  238                597.63      1.70      0.98
  239                230.34      0.65      0.17
  240                597.63      1.70      0.98
  241                597.63      1.70      0.98
  243                596.35      0.95      0.24
  245                356.68      0.57      0.09
  247                265.38      0.42      0.05
  249                129.86      0.21      0.01
  251                 60.74      0.13      0.01
  257                 33.52      0.10      0.00
  261                 70.81      0.45      0.14
  263                 24.23      0.07      0.00
  269                226.93      0.64      0.16
  271                 47.76      0.30      0.07
  273                156.22      0.44      0.08
  275                 37.90      0.11      0.01
  277                  6.38      0.02      0.00
  281                 31.52      0.13      0.01
  283                 52.75      0.15      0.01
  285                -38.95      0.11      0.01
  287                -32.99      0.13      0.01
  289                194.23      0.79      0.30
  291                 80.14      0.33      0.06
  293                 21.72      0.14      0.02
  295                 13.80      0.04      0.00
  297                489.68      3.13      4.87
  299                235.30      1.50      1.25
  301                235.30      1.50      1.25
  303                254.38      1.62      1.45
  305                150.27      0.43      0.08
  307                404.65      1.15      0.47
  309                219.99      1.40      1.11
  311               -164.25      0.47      0.09
  313                513.78      1.46      0.74
  315              -2249.37      1.60      0.39
  317                 95.62      0.61      0.24
  319                 84.69      0.24      0.03
  321               7324.44      3.32      1.00
  323                134.72      0.38      0.06
  325                130.61      0.83      0.42
  329              13143.14      5.97      3.00
  330                  0.00      0.00      0.00
  333                 -0.00      0.00      0.00
  10                   0.00      0.00      0.00  Pump
  335              13143.14      0.00    -93.57  Pump
   
   
  Node Results at 0:20:00 hrs:
  --------------------------------------------------------
                     Demand      Head  Pressure  Chemical
  Node                  gpm        ft       psi      mg/L
  --------------------------------------------------------
  10                   0.00    146.00     -0.43      0.00
  15                 640.07    124.10     39.91      0.00
  20                   0.00    158.30     12.69      0.00
  35                1490.32    146.89     58.23      0.00
  40                   0.00    145.33      5.82      0.00
  50                   0.00    139.72     10.06      0.00
  60                   0.00    209.04     90.58      0.00
  601                  0.00    302.63    131.13      0.00
  61                   0.00    302.63    131.13      0.00
  101                279.23    146.00     45.06      0.00
  103                195.80    145.97     44.62      0.00
  105                198.99    147.33     51.49      0.00
  107                 80.32    147.33     54.31      0.00
  109                340.16    145.98     54.46      0.00
  111                208.65    146.86     59.30      0.00
  113                 29.41    146.96     62.81      0.00
  115                 76.59    147.57     57.88      0.00
  117                173.03    150.57     59.35      0.00
  119                258.91    158.15     67.66      0.00
  120                  0.00    155.69     67.46      0.00
  121                 61.20    161.52     70.85      0.00
  123                  0.00    165.97     67.15      0.00
  125                 67.03    160.90     64.95      0.00
  127                 25.96    159.09     44.67      0.00
  129                  0.00    159.07     46.83      0.00
  131                 62.84    159.05     66.32      0.00
  139                  8.66    153.05     52.88      0.00
  141                 14.48    148.78     62.73      0.00
  143                  9.11    137.29     61.44      0.00
  145                 40.62    150.08     64.60      0.00
  147                 12.57    151.08     57.44      0.00
  149                 39.79    151.50     58.71      0.00
  151                212.39    155.69     52.95      0.00
  153                 64.93    155.79     38.82      0.00
  157                 76.13    155.82     61.84      0.00
  159                 60.74    152.63     63.53      0.00
  161                 23.23    150.46     63.46      0.00
  163                 13.85    150.03     62.84      0.00
  164                  0.00    150.03     62.84      0.00
  166                  3.82    150.03     65.87      0.00
  167                 21.40    148.26     66.41      0.00
  169                  0.00    148.26     66.41      0.00
  171                 57.83    147.26     65.54      0.00
  173                  0.00    147.24     65.53      0.00
  177                 85.51    146.85     60.16      0.00
  179                  0.00    146.81     60.15      0.00
  181                  0.00    146.90     60.18      0.00
  183                  0.00    146.81     58.85      0.00
  184                  0.00    145.73     56.21      0.00
  185                 37.71    146.20     56.42      0.00
  187                  0.00    146.73     58.16      0.00
  189                158.64    147.06     61.99      0.00
  191                120.39    146.86     52.80      0.00
  193                104.83    146.97     55.88      0.00
  195                  0.00    147.05     57.00      0.00
  197                 25.05    146.86     53.67      0.00
  199                175.40    142.86     62.77      0.00
  201                 65.58    142.27     61.60      0.00
  203               3706.05    142.15     60.73      0.00
  204                  0.00    146.54     54.40      0.00
  205                 96.08    142.76     52.76      0.00
  206                  0.00    141.55     60.90      0.00
  207                102.00    142.00     57.63      0.00
  208                  0.00    141.04     54.18      0.00
  209                  1.28    140.16     61.60      0.00
  211                 12.74    139.86     57.57      0.00
  213                 20.49    139.77     57.53      0.00
  215                135.52    139.54     57.43      0.00
  217                 35.60    139.52     57.85      0.00
  219                 60.74    139.50     58.71      0.00
  225                 33.52    139.51     56.98      0.00
  229                 94.34    139.46     55.88      0.00
  231                 24.23    139.45     58.26      0.00
  237                 22.95    139.50     54.38      0.00
  239                 65.58    139.46     54.79      0.00
  241                  0.00    139.46     54.79      0.00
  243                  6.38    139.46     54.36      0.00
  247                103.46    139.45     52.63      0.00
  249                  0.00    139.45     52.63      0.00
  251                 35.52    139.45     47.43      0.00
  253                 80.14    139.40     44.80      0.00
  255                 59.37    139.47     48.73      0.00
  257                  0.00    152.55     58.73      0.00
  259                  0.00    152.11     55.08      0.00
  261                  0.00    150.52     65.22      0.00
  263                  0.00    150.36     65.15      0.00
  265                  0.00    148.82     64.49      0.00
  267                  0.00    147.08     54.63      0.00
  269                  0.00    147.54     63.93      0.00
  271                  0.00    147.00     61.09      0.00
  273                  0.00    142.78     58.40      0.00
  275                  0.00    142.25     57.30      0.00
  River           -13141.03    220.00      0.00      0.00  Reservoir
  Lake                 0.00    167.00      0.00      0.00  Reservoir
  1                  682.29    145.33      5.82      0.00  Tank
  2                 -186.34    139.72     10.06      0.00  Tank
  3                 2327.92    158.30     12.69      0.00  Tank
   
   
  Link Results at 0:20:00 hrs:
  ----------------------------------------------
                       Flow  Velocity  Headloss
  Link                  gpm       fps   /1000ft
  ----------------------------------------------
  20               -2327.92      0.10      0.00
  40                -682.29      0.03      0.00
  50                 186.34      0.01      0.00
  60               13141.03      9.32      8.91
  101                  0.00      0.00      0.00
  103                148.52      0.24      0.02
  105               -427.75      1.21      0.53
  107                 13.33      0.04      0.00
  109                -47.28      0.08      0.00
  111               -387.44      1.10      0.44
  112                465.48      1.32      0.61
  113               -131.67      0.37      0.06
  114                110.09      0.70      0.31
  115                -67.00      0.43      0.12
  116                -51.00      0.14      0.01
  117                640.07      1.82      1.11
  119               -719.15      2.04      1.38
  120               1165.91      3.31      3.37
  121               1042.48      2.96      2.74
  122                366.35      2.34      2.84
  123               9690.02      4.40      1.69
  125              13141.03      5.96      2.96
  129               3023.47      2.14      0.67
  131               2734.96      1.94      0.56
  133              -2327.92      2.38      1.01
  135                381.08      0.27      0.01
  137                 62.84      0.10      0.00
  145                318.24      2.03      2.19
  147                309.58      1.98      2.08
  149               -649.18      4.14      8.21
  151               -640.07      4.09      7.99
  153                354.08      1.00      0.37
  155                394.70      1.12      0.45
  159               -407.27      1.16      0.48
  161               -447.06      2.85      4.11
  163               -156.55      0.44      0.08
  169                221.48      1.41      1.12
  171                502.90      1.43      0.71
  173               7762.30      3.52      1.12
  175               7686.17      3.49      1.10
  177               7625.43      3.46      1.08
  179               7344.22      3.33      1.01
  180                  3.82      0.01      0.00
  181                  3.82      0.01      0.00
  183               7106.60      3.23      0.95
  185                -21.40      0.14      0.01
  186                289.96      1.85      1.84
  187               6441.01      2.92      0.79
  189               4268.84      1.94      0.37
  191              -2114.34      1.50      0.35
  193              -1490.32      1.06      0.18
  195                754.64      2.14      1.50
  197                669.13      1.90      1.20
  199                -13.16      0.04      0.00
  201               -682.29      1.94      1.25
  202                481.78      3.08      4.72
  203                229.53      1.47      1.20
  204                481.78      1.37      0.66
  205                289.96      0.82      0.26
  207                242.70      0.69      0.18
  209                167.93      1.07      0.67
  211                644.18      1.83      1.12
  213                122.03      0.35      0.05
  215                 55.70      0.16      0.01
  217               -266.41      0.76      0.22
  219               -257.98      0.73      0.21
  221                257.98      1.65      1.49
  223                -23.98      0.07      0.00
  225                  1.06      0.00      0.00
  229               4268.84      3.03      1.10
  231               3911.02      2.77      0.93
  233               3706.05      2.63      0.98
  235                182.42      0.52      0.11
  237                472.43      1.34      0.63
  238                605.52      1.72      1.00
  239                235.10      0.67      0.17
  240                605.52      1.72      1.00
  241                605.52      1.72      1.00
  243                604.24      0.96      0.25
  245                358.36      0.57      0.09
  247                265.38      0.42      0.05
  249                129.86      0.21      0.01
  251                 60.74      0.13      0.01
  257                 33.52      0.10      0.00
  261                 72.49      0.46      0.14
  263                 24.23      0.07      0.00
  269                233.13      0.66      0.17
  271                 46.08      0.29      0.06
  273                164.11      0.47      0.09
  275                 40.85      0.12      0.01
  277                  6.38      0.02      0.00
  281                 34.47      0.14      0.01
  283                 57.68      0.16      0.01
  285                -41.16      0.12      0.01
  287                -27.83      0.11      0.01
  289                186.34      0.76      0.27
  291                 80.14      0.33      0.06
  293                 19.00      0.12      0.01
  295                 16.52      0.05      0.00
  297                489.77      3.13      4.87
  299                235.35      1.50      1.25
  301                235.35      1.50      1.25
  303                254.43      1.62      1.45
  305                150.30      0.43      0.08
  307                404.72      1.15      0.47
  309                219.96      1.40      1.11
  311               -164.25      0.47      0.09
  313                513.56      1.46      0.74
  315              -2244.96      1.59      0.39
  317                 95.70      0.61      0.24
  319                 86.72      0.25      0.03
  321               7326.56      3.33      1.00
  323                139.40      0.40      0.07
  325                130.62      0.83      0.42
  329              13141.03      5.96      3.00
  330                  0.00      0.00      0.00
  333                 -0.00      0.00      0.00
  10                   0.00      0.00      0.00  Pump
  335              13141.03      0.00    -93.59  Pump
   
   
  Node Results at 0:25:00 hrs:
  --------------------------------------------------------
                     Demand      Head  Pressure  Chemical
  Node                  gpm        ft       psi      mg/L
  --------------------------------------------------------
  10                   0.00    146.06     -0.41      0.00
  15                 640.07    124.16     39.93      0.00
  20                   0.00    158.37     12.73      0.00
  35                1490.32    146.95     58.26      0.00
  40                   0.00    145.41      5.85      0.00
  50                   0.00    139.66     10.03      0.00
  60                   0.00    209.04     90.58      0.00
  601                  0.00    302.65    131.14      0.00
  61                   0.00    302.65    131.14      0.00
  101                279.23    146.06     45.09      0.00
  103                195.80    146.03     44.64      0.00
  105                198.99    147.39     51.52      0.00
  107                 80.32    147.39     54.33      0.00
  109                340.16    146.04     54.48      0.00
  111                208.65    146.91     59.32      0.00
  113                 29.41    147.01     62.83      0.00
  115                 76.59    147.63     57.90      0.00
  117                173.03    150.63     59.38      0.00
  119                258.91    158.21     67.69      0.00
  120                  0.00    155.75     67.49      0.00
  121                 61.20    161.58     70.88      0.00
  123                  0.00    166.03     67.17      0.00
  125                 67.03    160.96     64.98      0.00
  127                 25.96    159.16     44.70      0.00
  129                  0.00    159.14     46.86      0.00
  131                 62.84    159.12     66.35      0.00
  139                  8.66    153.11     52.91      0.00
  141                 14.48    148.84     62.76      0.00
  143                  9.11    137.35     61.47      0.00
  145                 40.62    150.14     64.62      0.00
  147                 12.57    151.14     57.47      0.00
  149                 39.79    151.56     58.74      0.00
  151                212.39    155.76     52.97      0.00
  153                 64.93    155.85     38.85      0.00
  157                 76.13    155.88     61.87      0.00
  159                 60.74    152.69     63.56      0.00
  161                 23.23    150.52     63.49      0.00
  163                 13.85    150.09     62.87      0.00
  164                  0.00    150.09     62.87      0.00
  166                  3.82    150.09     65.90      0.00
  167                 21.40    148.32     66.43      0.00
  169                  0.00    148.32     66.43      0.00
  171                 57.83    147.32     65.57      0.00
  173                  0.00    147.30     65.56      0.00
  177                 85.51    146.91     60.19      0.00
  179                  0.00    146.87     60.17      0.00
  181                  0.00    146.95     60.21      0.00
  183                  0.00    146.87     58.87      0.00
  184                  0.00    145.79     56.24      0.00
  185                 37.71    146.26     56.44      0.00
  187                  0.00    146.78     58.19      0.00
  189                158.64    147.12     62.01      0.00
  191                120.39    146.92     52.83      0.00
  193                104.83    147.03     55.91      0.00
  195                  0.00    147.11     57.02      0.00
  197                 25.05    146.91     53.69      0.00
  199                175.40    142.90     62.79      0.00
  201                 65.58    142.31     61.62      0.00
  203               3706.05    142.20     60.75      0.00
  204                  0.00    146.60     54.42      0.00
  205                 96.08    142.80     52.78      0.00
  206                  0.00    141.58     60.91      0.00
  207                102.00    142.04     57.64      0.00
  208                  0.00    141.05     54.19      0.00
  209                  1.28    140.15     61.59      0.00
[...]
  219                 52.89    141.90     59.75      0.00
  225                 29.18    141.91     58.02      0.00
  229                 82.15    141.55     56.78      0.00
  231                 21.09    141.54     59.16      0.00
  237                 19.98    141.55     55.27      0.00
  239                 57.10    141.41     55.64      0.00
  241                  0.00    141.41     55.64      0.00
  243                  5.56    141.41     55.21      0.00
  247                 90.09    141.38     53.46      0.00
  249                  0.00    141.38     53.46      0.00
  251                 30.92    141.35     48.25      0.00
  253                 69.79    141.25     45.61      0.00
  255                 51.70    141.30     49.53      0.00
  257                  0.00    154.16     59.43      0.00
  259                  0.00    153.80     55.81      0.00
  261                  0.00    152.50     66.08      0.00
  263                  0.00    152.36     66.02      0.00
  265                  0.00    150.94     65.40      0.00
  267                  0.00    149.56     55.70      0.00
  269                  0.00    149.89     64.95      0.00
  271                  0.00    149.40     62.14      0.00
  273                  0.00    145.70     59.67      0.00
  275                  0.00    145.25     58.60      0.00
  River           -13176.67    220.00      0.00      0.00  Reservoir
  Lake                 0.00    167.00      0.00      0.00  Reservoir
  1                  331.21    148.91      7.37      0.00  Tank
  2                   -5.57    141.30     10.75      0.00  Tank
  3                 1765.20    159.57     13.25      0.00  Tank
   
   
  Link Results at 23:55:00 hrs:
  ----------------------------------------------
                       Flow  Velocity  Headloss
  Link                  gpm       fps   /1000ft
  ----------------------------------------------
  20               -1765.20      0.07      0.00
  40                -331.21      0.01      0.00
  50                   5.57      0.00      0.00
  60               13176.67      9.34      8.95
  101                  0.00      0.00      0.00
  103                139.89      0.22      0.02
  105               -383.03      1.09      0.43
  107                 17.93      0.05      0.00
  109                -30.61      0.05      0.00
  111               -326.80      0.93      0.32
  112                429.66      1.22      0.53
  113               -107.64      0.31      0.04
  114                103.40      0.66      0.27
  115                -52.01      0.33      0.08
  116                -29.86      0.08      0.00
  117                574.23      1.63      0.91
  119               -651.75      1.85      1.15
  120               1048.00      2.97      2.76
  121                936.64      2.66      2.25
  122                328.65      2.10      2.33
  123               8680.24      3.94      1.38
  125              11376.12      5.16      2.27
  129               2313.94      1.64      0.41
  131               2072.65      1.47      0.33
  133              -1765.20      1.80      0.60
  135                284.85      0.20      0.01
  137                 54.72      0.09      0.00
  145                230.13      1.47      1.20
  147                222.59      1.42      1.13
  149               -424.04      2.71      3.73
  151               -416.10      2.66      3.60
  153                214.06      0.61      0.15
  155                249.42      0.71      0.19
  159               -260.37      0.74      0.21
  161               -295.02      1.88      1.90
  163               -126.39      0.36      0.05
  169                182.93      1.17      0.79
  171                353.56      1.00      0.37
  173               7053.23      3.20      0.94
  175               6986.94      3.17      0.92
  177               6934.05      3.15      0.91
  179               6684.02      3.03      0.85
  180                  3.33      0.01      0.00
  181                  3.33      0.01      0.00
  183               6474.75      2.94      0.80
  185                -18.64      0.12      0.01
  186                278.06      1.77      1.71
  187               5888.68      2.67      0.67
  189               3956.38      1.80      0.32
  191              -1881.94      1.33      0.28
  193              -1621.58      1.15      0.21
  195                383.93      1.09      0.43
  197                309.47      0.88      0.29
  199                -21.74      0.06      0.00
  201               -331.21      0.94      0.33
  202                455.89      2.91      4.26
  203                210.66      1.34      1.02
  204                455.89      1.29      0.59
  205                278.06      0.79      0.24
  207                232.40      0.66      0.17
  209                148.06      0.95      0.53
  211                567.44      1.61      0.89
  213                130.01      0.37      0.06
  215                 74.72      0.21      0.02
  217               -227.83      0.65      0.16
  219               -229.80      0.65      0.17
  221                229.80      1.47      1.20
  223                  7.01      0.02      0.00
  225                 28.82      0.08      0.00
  229               3956.38      2.81      0.95
  231               3605.01      2.56      0.80
  233               3346.02      2.37      0.81
  235                198.64      0.56      0.13
  237                482.89      1.37      0.66
  238                683.94      1.94      1.25
  239                289.87      0.82      0.26
  240                683.94      1.94      1.25
  241                683.94      1.94      1.25
  243                682.83      1.09      0.31
  245                348.71      0.56      0.09
  247                231.08      0.37      0.04
  249                113.08      0.18      0.01
  251                 52.89      0.11      0.01
  257                 29.18      0.08      0.00
  261                 99.79      0.64      0.26
  263                 21.09      0.06      0.00
  269                323.02      0.92      0.31
  271                  3.46      0.02      0.00
  273                299.58      0.85      0.27
  275                 94.26      0.27      0.03
  277                  5.56      0.02      0.00
  281                 88.71      0.36      0.07
  283                148.22      0.42      0.07
  285                -78.66      0.22      0.02
  287                 77.28      0.32      0.05
  289                  5.57      0.02      0.00
  291                 69.79      0.29      0.04
  293                -38.64      0.25      0.04
  295                 69.56      0.20      0.02
  297                440.01      2.81      3.99
  299                211.41      1.35      1.03
  301                211.41      1.35      1.03
  303                228.59      1.46      1.19
  305                134.22      0.38      0.06
  307                362.82      1.03      0.39
  309                193.88      1.24      0.88
  311               -119.16      0.34      0.05
  313                443.87      1.26      0.56
  315              -2005.51      1.42      0.31
  317                 87.98      0.56      0.20
  319                110.66      0.31      0.04
  321               6668.64      3.03      0.84
  323                201.89      0.57      0.13
  325                123.57      0.79      0.38
  329              13176.67      5.98      3.02
  330                  0.00      0.00      0.00
  333                 -0.00      0.00      0.00
  10                   0.00      0.00      0.00  Pump
  335              13176.67      0.00    -93.28  Pump
   
   
  Node Results at 24:00:00 hrs:
  --------------------------------------------------------
                     Demand      Head  Pressure  Chemical
  Node                  gpm        ft       psi      mg/L
  --------------------------------------------------------
  10                   0.00    148.41      0.61      0.00
  15                 640.07    125.82     40.65      0.00
  20                   0.00    159.63     13.27      0.00
  35                1490.32    149.46     59.34      0.00
  40                   0.00    148.95      7.39      0.00
  50                   0.00    141.30     10.75      0.00
  60                   0.00    209.13     90.61      0.00
  601                  0.00    303.24    131.39      0.00
  61                   0.00    303.24    131.39      0.00
  101                279.23    148.41     46.11      0.00
  103                195.80    148.39     45.66      0.00
  105                198.99    149.70     52.51      0.00
  107                 80.32    149.69     55.33      0.00
  109                340.16    148.40     55.50      0.00
  111                208.65    149.31     60.36      0.00
  113                 29.41    149.42     63.88      0.00
  115                 76.59    149.97     58.91      0.00
  117                173.03    152.81     60.32      0.00
  119                258.91    160.07     68.49      0.00
  120                  0.00    157.71     68.34      0.00
  121                 61.20    163.29     71.62      0.00
  123                  0.00    167.70     67.90      0.00
  125                 67.03    162.59     65.69      0.00
  127                 25.96    160.54     45.30      0.00
  129                  0.00    160.53     47.46      0.00
  131                 62.84    160.51     66.95      0.00
  139                  8.66    154.66     53.58      0.00
  141                 14.48    150.50     63.48      0.00
  143                  9.11    139.01     62.18      0.00
  145                 40.62    151.83     65.35      0.00
  147                 12.57    152.84     58.21      0.00
  149                 39.79    153.27     59.48      0.00
  151                212.39    157.55     53.75      0.00
  153                 64.93    157.64     39.62      0.00
  157                 76.13    157.87     62.73      0.00
  159                 60.74    154.84     64.49      0.00
  161                 23.23    152.79     64.47      0.00
  163                 13.85    152.38     63.86      0.00
  164                  0.00    152.38     63.86      0.00
  166                  3.82    152.38     66.89      0.00
  167                 21.40    150.71     67.47      0.00
  169                  0.00    150.71     67.47      0.00
  171                 57.83    149.76     66.62      0.00
  173                  0.00    149.74     66.61      0.00
  177                 85.51    149.44     61.29      0.00
  179                  0.00    149.43     61.28      0.00
  181                  0.00    149.46     61.30      0.00
  183                  0.00    149.42     59.98      0.00
  184                  0.00    148.23     57.30      0.00
  185                 37.71    148.72     57.51      0.00
  187                  0.00    149.22     59.24      0.00
  189                158.64    149.58     63.08      0.00
  191                120.39    149.32     53.87      0.00
  193                104.83    149.44     56.95      0.00
  195                  0.00    149.52     58.07      0.00
  197                 25.05    149.31     54.73      0.00
  199                175.40    145.26     63.81      0.00
  201                 65.58    144.67     62.64      0.00
  203               3706.05    144.55     61.77      0.00
  204                  0.00    149.04     55.48      0.00
  205                 96.08    145.15     53.79      0.00
  206                  0.00    143.78     61.87      0.00
  207                102.00    144.32     58.63      0.00
  208                  0.00    143.17     55.10      0.00
  209                  1.28    142.12     62.45      0.00
  211                 12.74    141.77     58.40      0.00
  213                 20.49    141.67     58.35      0.00
  215                135.52    141.44     58.25      0.00
  217                 35.60    141.42     58.68      0.00
  219                 60.74    141.40     59.54      0.00
  225                 33.52    141.41     57.81      0.00
  229                 94.34    141.25     56.65      0.00
  231                 24.23    141.24     59.03      0.00
  237                 22.95    141.27     55.15      0.00
  239                 65.58    141.19     55.55      0.00
  241                  0.00    141.19     55.55      0.00
  243                  6.38    141.19     55.11      0.00
  247                103.46    141.18     53.37      0.00
  249                  0.00    141.18     53.37      0.00
  251                 35.52    141.17     48.17      0.00
  253                 80.14    141.11     45.54      0.00
  255                 59.37    141.17     49.47      0.00
  257                  0.00    154.70     59.67      0.00
  259                  0.00    154.28     56.02      0.00
  261                  0.00    152.76     66.19      0.00
  263                  0.00    152.60     66.12      0.00
  265                  0.00    151.24     65.53      0.00
  267                  0.00    149.58     55.71      0.00
  269                  0.00    150.03     65.01      0.00
  271                  0.00    149.54     62.20      0.00
  273                  0.00    145.17     59.44      0.00
  275                  0.00    144.64     58.34      0.00
  River           -13082.34    220.00      0.00      0.00  Reservoir
  Lake                 0.00    167.00      0.00      0.00  Reservoir
  1                  368.67    148.95      7.39      0.00  Tank
  2                 -127.41    141.30     10.75      0.00  Tank
  3                 2523.92    159.63     13.27      0.00  Tank
   
   
  Link Results at 24:00:00 hrs:
  ----------------------------------------------
                       Flow  Velocity  Headloss
  Link                  gpm       fps   /1000ft
  ----------------------------------------------
  20               -2523.92      0.11      0.00
  40                -368.67      0.02      0.00
  50                 127.41      0.01      0.00
  60               13082.34      9.28      8.83
  101                  0.00      0.00      0.00
  103                140.02      0.22      0.02
  105               -419.25      1.19      0.51
  107                  8.25      0.02      0.00
  109                -55.78      0.09      0.00
  111               -395.94      1.12      0.46
  112                445.74      1.26      0.57
  113               -138.18      0.39      0.06
  114                103.70      0.66      0.27
  115                -72.07      0.46      0.14
  116                -63.90      0.18      0.02
  117                626.50      1.78      1.07
  119               -698.10      1.98      1.30
  120               1139.93      3.23      3.23
  121               1018.89      2.89      2.62
  122                357.70      2.28      2.72
  123               9451.86      4.29      1.61
  125              13082.34      5.94      2.94
  129               3211.59      2.28      0.75
  131               2926.62      2.08      0.63
  133              -2523.92      2.58      1.17
  135                376.74      0.27      0.01
  137                 62.84      0.10      0.00
  145                313.90      2.00      2.14
  147                305.24      1.95      2.03
  149               -649.18      4.14      8.21
  151               -640.07      4.09      7.99
  153                358.42      1.02      0.38
  155                399.04      1.13      0.46
  159               -411.60      1.17      0.49
  161               -451.40      2.88      4.19
  163               -153.01      0.43      0.08
  169                217.94      1.39      1.09
  171                510.78      1.45      0.73
  173               7542.24      3.42      1.06
  175               7466.11      3.39      1.04
  177               7405.37      3.36      1.02
  179               7129.99      3.24      0.96
  180                  3.82      0.01      0.00
  181                  3.82      0.01      0.00
  183               6898.56      3.13      0.90
  185                -21.40      0.14      0.02
  186                282.14      1.80      1.75
  187               6255.63      2.84      0.75
  189               4317.82      1.96      0.38
  191              -1879.98      1.33      0.28
  193              -1490.32      1.06      0.18
  195                512.57      1.45      0.73
  197                427.06      1.21      0.52
  199                 58.39      0.17      0.01
  201               -368.67      1.05      0.40
  202                491.74      3.14      4.91
  203                247.31      1.58      1.37
  204                491.74      1.39      0.68
  205                282.14      0.80      0.24
  207                188.92      0.54      0.12
  209                174.30      1.11      0.72
  211                621.52      1.76      1.05
  213                107.84      0.31      0.04
  215                 23.25      0.07      0.00
  217               -273.95      0.78      0.23
  219               -252.15      0.72      0.20
  221                252.15      1.61      1.42
  223                -45.72      0.13      0.01
  225                -20.67      0.06      0.00
  229               4317.82      3.06      1.12
  231               3945.08      2.80      0.95
  233               3706.05      2.63      0.98
  235                197.34      0.56      0.13
  237                496.61      1.41      0.69
  238                664.45      1.88      1.19
  239                269.84      0.77      0.22
  240                664.45      1.88      1.19
  241                664.45      1.88      1.19
  243                663.17      1.06      0.29
  245                371.41      0.59      0.10
  247                265.38      0.42      0.05
  249                129.86      0.21      0.01
  251                 60.74      0.13      0.01
  257                 33.52      0.10      0.00
  261                 85.54      0.55      0.19
  263                 24.23      0.07      0.00
  269                279.01      0.79      0.24
  271                 33.03      0.21      0.03
  273                223.04      0.63      0.16
  275                 62.96      0.18      0.02
  277                  6.38      0.02      0.00
  281                 56.58      0.23      0.03
  283                 94.50      0.27      0.03
  285                -63.94      0.18      0.02
  287                 17.07      0.07      0.00
  289                127.41      0.52      0.14
  291                 80.14      0.33      0.06
  293                  4.96      0.03      0.00
  295                 30.56      0.09      0.00
  297                478.73      3.06      4.67
  299                230.06      1.47      1.20
  301                230.06      1.47      1.20
  303                248.67      1.59      1.39
  305                147.76      0.42      0.07
  307                396.43      1.12      0.46
  309                213.77      1.36      1.05
  311               -190.51      0.54      0.12
  313                498.61      1.41      0.70
  315              -2002.89      1.42      0.31
  317                 96.39      0.62      0.24
  319                100.95      0.29      0.04
  321               7112.32      3.23      0.95
  323                173.45      0.49      0.10
  325                122.91      0.78      0.38
  329              13082.34      5.94      2.98
  330                  0.00      0.00      0.00
  333                 -0.00      0.00      0.00
  10                   0.00      0.00      0.00  Pump
  335              13082.34      0.00    -94.11  Pump
   
  Analysis ended Wed May 06 18:09:18 2020
