  Page 1                                    Wed May 06 18:10:39 2020

  ******************************************************************
  *                           E P A N E T                          *
  *                   Hydraulic and Water Quality                  *
  *                   Analysis for Pipe Networks                   *
  *                         Version 2.00.12                        *
  ******************************************************************
  
  Analysis begun Wed May 06 18:10:39 2020

   
  Hydraulic Status:
  -----------------------------------------------------------------------
     0:00:00: Balanced after 5 trials
     0:00:00: Reservoir River is emptying
     0:00:00: Reservoir Lake is closed
     0:00:00: Tank 1 is filling at 13.10 ft
     0:00:00: Tank 2 is emptying at 23.50 ft
     0:00:00: Tank 3 is filling at 29.00 ft
   
     0:05:00: Balanced after 2 trials
   
     0:10:00: Balanced after 2 trials
   
     0:15:00: Balanced after 2 trials
   
     0:20:00: Balanced after 2 trials
   
     0:25:00: Balanced after 2 trials
   
     0:30:00: Balanced after 2 trials
   
     0:35:00: Balanced after 2 trials
   
     0:40:00: Balanced after 2 trials
   
     0:45:00: Balanced after 2 trials
   
     0:50:00: Balanced after 2 trials
   
     0:55:00: Balanced after 2 trials
   
     1:00:00: Pump 10 changed by timer control
     1:00:00: Balanced after 7 trials
     1:00:00: Reservoir Lake is emptying
     1:00:00: Pump 10 changed from closed to open
   
     1:05:00: Balanced after 2 trials
   
     1:10:00: Balanced after 2 trials
   
     1:15:00: Balanced after 2 trials
   
     1:20:00: Balanced after 2 trials
   
     1:25:00: Balanced after 2 trials
   
     1:30:00: Balanced after 2 trials
   
     1:35:00: Balanced after 1 trials
   
     1:40:00: Balanced after 1 trials
   
     1:45:00: Balanced after 1 trials
   
     1:50:00: Balanced after 1 trials
   
     1:55:00: Balanced after 1 trials
   
     2:00:00: Balanced after 3 trials
     2:00:00: Tank 2 is filling at 22.05 ft
   
     2:05:00: Balanced after 1 trials
   
     2:10:00: Balanced after 1 trials
   
     2:15:00: Balanced after 1 trials
   
     2:20:00: Balanced after 1 trials
   
     2:25:00: Balanced after 1 trials
   
     2:30:00: Balanced after 1 trials
   
     2:35:00: Balanced after 1 trials
   
     2:40:00: Balanced after 1 trials
   
     2:45:00: Balanced after 1 trials
   
     2:50:00: Balanced after 1 trials
   
     2:55:00: Balanced after 1 trials
   
     3:00:00: Balanced after 3 trials
     3:00:00: Tank 2 is emptying at 22.81 ft
   
     3:05:00: Balanced after 2 trials
   
     3:10:00: Balanced after 2 trials
   
     3:15:00: Balanced after 1 trials
   
     3:20:00: Balanced after 1 trials
   
     3:25:00: Balanced after 1 trials
   
     3:30:00: Balanced after 1 trials
   
     3:35:00: Balanced after 1 trials
   
     3:40:00: Balanced after 1 trials
   
     3:45:00: Balanced after 1 trials
   
     3:50:00: Balanced after 1 trials
   
     3:55:00: Balanced after 1 trials
   
     4:00:00: Balanced after 3 trials
     4:00:00: Tank 2 is filling at 22.39 ft
   
     4:05:00: Balanced after 1 trials
   
     4:10:00: Balanced after 1 trials
   
     4:15:00: Balanced after 1 trials
   
     4:17:00: Pump 335 changed by Tank 1 control
     4:17:00: Pipe 330 changed by Tank 1 control
     4:17:00: Balanced after 4 trials
     4:17:00: Pipe 330 changed from closed to open
     4:17:00: Pump 335 changed from open to closed
   
     4:20:00: Balanced after 1 trials
   
     4:25:00: Balanced after 2 trials
   
     4:30:00: Balanced after 2 trials
   
     4:35:00: Balanced after 2 trials
   
     4:40:00: Balanced after 2 trials
   
     4:45:00: Balanced after 2 trials
   
     4:50:00: Balanced after 2 trials
   
     4:55:00: Balanced after 2 trials
   
     5:00:00: Balanced after 3 trials
     5:00:00: Tank 3 is emptying at 34.28 ft
   
     5:05:00: Balanced after 2 trials
   
     5:10:00: Balanced after 2 trials
   
     5:15:00: Balanced after 2 trials
   
     5:20:00: Balanced after 2 trials
   
     5:25:00: Balanced after 2 trials
   
     5:30:00: Balanced after 2 trials
   
     5:35:00: Balanced after 2 trials
   
     5:40:00: Balanced after 2 trials
   
     5:45:00: Balanced after 2 trials
   
     5:50:00: Balanced after 2 trials
   
     5:55:00: Balanced after 2 trials
   
     6:00:00: Balanced after 4 trials
     6:00:00: Tank 3 is filling at 33.99 ft
   
     6:05:00: Balanced after 2 trials
   
     6:10:00: Balanced after 2 trials
   
     6:15:00: Balanced after 2 trials
   
     6:20:00: Balanced after 2 trials
   
     6:25:00: Balanced after 2 trials
   
     6:30:00: Balanced after 2 trials
   
     6:35:00: Balanced after 2 trials
   
     6:40:00: Balanced after 2 trials
   
     6:45:00: Balanced after 2 trials
   
     6:50:00: Balanced after 2 trials
   
     6:55:00: Balanced after 2 trials
   
     7:00:00: Balanced after 4 trials
     7:00:00: Tank 1 is emptying at 21.25 ft
   
     7:05:00: Balanced after 2 trials
   
     7:10:00: Balanced after 2 trials
   
     7:15:00: Balanced after 1 trials
   
     7:20:00: Balanced after 1 trials
   
     7:25:00: Balanced after 1 trials
   
     7:30:00: Balanced after 1 trials
   
     7:35:00: Balanced after 1 trials
   
     7:40:00: Balanced after 1 trials
   
     7:45:00: Balanced after 1 trials
   
     7:50:00: Balanced after 1 trials
   
     7:55:00: Balanced after 1 trials
   
     8:00:00: Balanced after 3 trials
     8:00:00: Tank 1 is filling at 21.15 ft
   
     8:05:00: Balanced after 1 trials
   
     8:10:00: Balanced after 1 trials
   
     8:15:00: Balanced after 1 trials
   
     8:20:00: Balanced after 1 trials
   
     8:25:00: Balanced after 1 trials
   
     8:30:00: Balanced after 1 trials
   
     8:35:00: Balanced after 1 trials
   
     8:40:00: Balanced after 1 trials
   
     8:45:00: Balanced after 1 trials
   
     8:50:00: Balanced after 1 trials
   
     8:55:00: Balanced after 1 trials
   
     9:00:00: Balanced after 3 trials
     9:00:00: Tank 1 is emptying at 21.63 ft
     9:00:00: Tank 2 is emptying at 26.56 ft
     9:00:00: Tank 3 is emptying at 35.01 ft
   
     9:05:00: Balanced after 1 trials
   
     9:10:00: Balanced after 1 trials
   
     9:15:00: Balanced after 1 trials
   
     9:20:00: Balanced after 1 trials
   
     9:25:00: Balanced after 1 trials
   
     9:30:00: Balanced after 1 trials
   
     9:35:00: Balanced after 1 trials
   
     9:40:00: Balanced after 1 trials
   
     9:45:00: Balanced after 1 trials
   
     9:50:00: Balanced after 1 trials
   
     9:55:00: Balanced after 1 trials
   
    10:00:00: Balanced after 4 trials
    10:00:00: Tank 1 is filling at 21.08 ft
    10:00:00: Tank 2 is filling at 25.97 ft
   
    10:05:00: Balanced after 2 trials
   
    10:10:00: Balanced after 2 trials
   
    10:15:00: Balanced after 2 trials
   
    10:20:00: Balanced after 2 trials
   
    10:25:00: Balanced after 2 trials
   
    10:30:00: Balanced after 2 trials
   
    10:35:00: Balanced after 2 trials
   
    10:40:00: Balanced after 2 trials
   
    10:45:00: Balanced after 2 trials
   
    10:50:00: Balanced after 2 trials
   
    10:55:00: Balanced after 2 trials
   
    11:00:00: Balanced after 4 trials
    11:00:00: Tank 1 is emptying at 21.70 ft
   
    11:05:00: Balanced after 1 trials
   
    11:10:00: Balanced after 1 trials
   
    11:15:00: Balanced after 1 trials
   
    11:20:00: Balanced after 1 trials
   
    11:25:00: Balanced after 1 trials
   
    11:30:00: Balanced after 1 trials
   
    11:35:00: Balanced after 1 trials
   
    11:40:00: Balanced after 1 trials
   
    11:45:00: Balanced after 1 trials
   
    11:50:00: Balanced after 1 trials
   
    11:55:00: Balanced after 1 trials
   
    12:00:00: Balanced after 2 trials
   
    12:05:00: Balanced after 1 trials
   
    12:10:00: Balanced after 1 trials
   
    12:15:00: Balanced after 1 trials
   
    12:20:00: Balanced after 1 trials
   
    12:25:00: Balanced after 1 trials
   
    12:30:00: Balanced after 1 trials
   
    12:35:00: Balanced after 1 trials
   
    12:40:00: Balanced after 1 trials
   
    12:45:00: Balanced after 1 trials
   
    12:50:00: Balanced after 1 trials
   
    12:55:00: Balanced after 1 trials
   
    13:00:00: Balanced after 3 trials
    13:00:00: Tank 2 is emptying at 26.83 ft
   
    13:05:00: Balanced after 1 trials
   
    13:10:00: Balanced after 1 trials
   
    13:15:00: Balanced after 1 trials
   
    13:20:00: Balanced after 1 trials
   
    13:25:00: Balanced after 1 trials
   
    13:30:00: Balanced after 1 trials
   
    13:35:00: Balanced after 1 trials
   
    13:40:00: Balanced after 1 trials
   
    13:45:00: Balanced after 1 trials
   
    13:50:00: Balanced after 1 trials
   
    13:55:00: Balanced after 1 trials
   
    14:00:00: Balanced after 3 trials
   
    14:05:00: Balanced after 1 trials
   
    14:10:00: Balanced after 1 trials
   
    14:15:00: Balanced after 1 trials
   
    14:20:00: Balanced after 1 trials
   
    14:25:00: Balanced after 1 trials
   
    14:30:00: Balanced after 1 trials
   
    14:35:00: Balanced after 1 trials
   
    14:40:00: Balanced after 1 trials
   
    14:45:00: Balanced after 1 trials
   
    14:50:00: Balanced after 1 trials
   
    14:55:00: Balanced after 1 trials
   
    15:00:00: Pump 10 changed by timer control
    15:00:00: Balanced after 4 trials
    15:00:00: Reservoir Lake is closed
    15:00:00: Tank 2 is filling at 26.35 ft
    15:00:00: Pump 10 changed from open to closed
   
    15:05:00: Balanced after 2 trials
   
    15:10:00: Balanced after 2 trials
   
    15:15:00: Balanced after 2 trials
   
    15:20:00: Balanced after 2 trials
   
    15:25:00: Balanced after 2 trials
   
    15:30:00: Balanced after 2 trials
   
    15:35:00: Balanced after 2 trials
   
    15:40:00: Balanced after 2 trials
   
    15:45:00: Balanced after 2 trials
   
    15:50:00: Balanced after 2 trials
   
    15:55:00: Balanced after 2 trials
   
    16:00:00: Balanced after 4 trials
   
    16:05:00: Balanced after 2 trials
   
    16:10:00: Balanced after 2 trials
   
    16:15:00: Balanced after 2 trials
   
    16:20:00: Balanced after 2 trials
   
    16:25:00: Balanced after 2 trials
   
    16:30:00: Balanced after 2 trials
   
    16:35:00: Balanced after 2 trials
    16:35:00: Tank 2 is emptying at 27.19 ft
   
    16:40:00: Balanced after 2 trials
   
    16:45:00: Balanced after 2 trials
   
    16:50:00: Balanced after 1 trials
   
    16:55:00: Balanced after 1 trials
   
    17:00:00: Balanced after 3 trials
   
    17:05:00: Balanced after 1 trials
   
    17:10:00: Balanced after 1 trials
   
    17:15:00: Balanced after 1 trials
   
    17:20:00: Balanced after 1 trials
   
    17:25:00: Balanced after 1 trials
   
    17:30:00: Balanced after 1 trials
   
    17:35:00: Balanced after 1 trials
   
    17:40:00: Balanced after 1 trials
   
    17:45:00: Balanced after 1 trials
   
    17:50:00: Balanced after 1 trials
   
    17:55:00: Balanced after 1 trials
   
    18:00:00: Balanced after 3 trials
    18:00:00: Tank 2 is filling at 25.98 ft
   
    18:05:00: Balanced after 2 trials
   
    18:10:00: Balanced after 2 trials
   
    18:15:00: Balanced after 2 trials
   
    18:20:00: Balanced after 2 trials
   
    18:25:00: Balanced after 2 trials
   
    18:30:00: Balanced after 2 trials
   
    18:35:00: Balanced after 2 trials
   
    18:40:00: Balanced after 2 trials
   
    18:45:00: Balanced after 2 trials
   
    18:50:00: Balanced after 2 trials
   
    18:55:00: Balanced after 2 trials
   
    19:00:00: Balanced after 3 trials
    19:00:00: Tank 2 is emptying at 26.44 ft
   
    19:05:00: Balanced after 1 trials
   
    19:10:00: Balanced after 1 trials
   
    19:15:00: Balanced after 1 trials
   
    19:20:00: Balanced after 1 trials
   
    19:25:00: Balanced after 1 trials
   
    19:30:00: Balanced after 1 trials
   
    19:35:00: Balanced after 1 trials
   
    19:40:00: Balanced after 1 trials
   
    19:45:00: Balanced after 1 trials
   
    19:50:00: Balanced after 1 trials
   
    19:55:00: Balanced after 1 trials
   
    20:00:00: Balanced after 3 trials
    20:00:00: Tank 2 is filling at 26.11 ft
   
    20:05:00: Balanced after 1 trials
   
    20:10:00: Balanced after 1 trials
   
    20:15:00: Balanced after 1 trials
   
    20:20:00: Balanced after 1 trials
   
    20:25:00: Balanced after 1 trials
   
    20:30:00: Balanced after 1 trials
   
    20:35:00: Balanced after 1 trials
   
    20:40:00: Balanced after 1 trials
   
    20:45:00: Balanced after 1 trials
   
    20:45:44: Pump 335 changed by Tank 1 control
    20:45:44: Pipe 330 changed by Tank 1 control
    20:45:44: Balanced after 6 trials
    20:45:44: Tank 1 is filling at 17.10 ft
    20:45:44: Tank 3 is filling at 29.72 ft
    20:45:44: Pipe 330 changed from open to closed
    20:45:44: Pump 335 changed from closed to open
   
    20:50:00: Balanced after 1 trials
   
    20:55:00: Balanced after 1 trials
   
    21:00:00: Balanced after 4 trials
    21:00:00: Tank 1 is emptying at 17.31 ft
    21:00:00: Tank 2 is emptying at 26.35 ft
   
    21:05:00: Balanced after 2 trials
   
    21:10:00: Balanced after 2 trials
   
    21:15:00: Balanced after 2 trials
   
    21:20:00: Balanced after 2 trials
   
    21:25:00: Balanced after 2 trials
    21:25:00: Tank 1 is filling at 17.30 ft
   
    21:30:00: Balanced after 2 trials
   
    21:35:00: Balanced after 2 trials
   
    21:40:00: Balanced after 2 trials
   
    21:45:00: Balanced after 2 trials
   
    21:50:00: Balanced after 2 trials
   
    21:55:00: Balanced after 2 trials
   
    22:00:00: Balanced after 3 trials
    22:00:00: Tank 1 is emptying at 17.31 ft
   
    22:05:00: Balanced after 2 trials
   
    22:10:00: Balanced after 2 trials
   
    22:15:00: Balanced after 2 trials
   
    22:20:00: Balanced after 2 trials
   
    22:25:00: Balanced after 2 trials
   
    22:30:00: Balanced after 2 trials
   
    22:35:00: Balanced after 2 trials
   
    22:40:00: Balanced after 2 trials
   
    22:45:00: Balanced after 2 trials
   
    22:50:00: Balanced after 2 trials
   
    22:55:00: Balanced after 2 trials
   
    23:00:00: Balanced after 4 trials
    23:00:00: Tank 3 is emptying at 31.49 ft
   
    23:05:00: Balanced after 2 trials
   
    23:10:00: Balanced after 2 trials
   
    23:15:00: Balanced after 2 trials
   
    23:20:00: Balanced after 2 trials
   
    23:25:00: Balanced after 2 trials
   
    23:30:00: Balanced after 2 trials
   
    23:35:00: Balanced after 2 trials
   
    23:40:00: Balanced after 2 trials
   
    23:45:00: Balanced after 2 trials
   
    23:50:00: Balanced after 2 trials
   
    23:55:00: Balanced after 2 trials
   
    24:00:00: Balanced after 4 trials
    24:00:00: Tank 1 is filling at 15.68 ft
    24:00:00: Tank 3 is filling at 31.45 ft
   
   
  Node Results at 0:00:00 hrs:
  --------------------------------------------------------
                     Demand      Head  Pressure  Chemical
  Node                  gpm        ft       psi      mg/L
  --------------------------------------------------------
  10                   0.00    145.94     -0.46      0.00
  15                 492.24    136.85     45.43      0.00
  20                   0.00    158.00     12.57      0.00
  35                1801.91    145.81     57.76      0.00
  40                   0.00    145.00      5.68      0.00
  50                   0.00    140.00     10.18      0.00
  60                   0.00    209.02     90.57      0.00
  601                  0.00    302.52    131.08      0.00
  61                   0.00    302.52    131.08      0.00
  101                241.24    145.94     45.04      0.00
  103                169.16    145.91     44.59      0.00
  105                171.92    147.22     51.44      0.00
  107                 69.39    147.21     54.25      0.00
  109                293.88    145.91     54.43      0.00
  111                180.26    146.41     59.11      0.00
  113                 25.41    146.42     62.58      0.00
  115                 66.17    147.26     57.74      0.00
  117                149.49    150.38     59.27      0.00
  119                223.69    157.79     67.50      0.00
  120                  0.00    155.40     67.33      0.00
  121                 52.87    161.21     70.72      0.00
  123                  0.00    165.66     67.02      0.00
  125                 57.91    160.61     64.82      0.00
  127                 22.43    158.82     44.55      0.00
  129                  0.00    158.82     46.72      0.00
  131                 54.29    158.80     66.21      0.00
  139                  7.48    154.85     53.66      0.00
  141                 12.51    152.05     64.15      0.00
  143                  7.87    144.96     64.76      0.00
  145                 35.09    152.81     65.78      0.00
  147                 10.86    153.42     58.46      0.00
  149                 34.38    153.67     59.65      0.00
  151                183.49    156.29     53.20      0.00
  153                 56.10    156.37     39.07      0.00
  157                 65.77    155.33     61.63      0.00
  159                 52.48    151.94     63.24      0.00
  161                 20.07    149.64     63.11      0.00
  163                 11.96    149.17     62.47      0.00
  164                  0.00    149.17     62.47      0.00
  166                  3.30    149.17     65.50      0.00
  167                 18.49    147.28     65.98      0.00
  169                  0.00    147.28     65.98      0.00
  171                 49.96    146.18     65.07      0.00
  173                  0.00    146.15     65.06      0.00
  177                 73.88    145.80     59.71      0.00
  179                  0.00    145.79     59.70      0.00
  181                  0.00    145.82     59.72      0.00
  183                  0.00    145.80     58.41      0.00
  184                  0.00    144.66     55.75      0.00
  185                 32.58    145.24     56.00      0.00
  187                  0.00    145.99     57.84      0.00
  189                137.06    146.27     61.65      0.00
  191                104.01    146.31     52.56      0.00
  193                 90.56    146.40     55.64      0.00
  195                  0.00    146.47     56.75      0.00
  197                 21.64    146.33     53.44      0.00
  199                151.54    141.03     61.98      0.00
  201                 56.65    140.31     60.75      0.00
  203               4410.98    140.14     59.86      0.00
  204                  0.00    145.72     54.04      0.00
  205                 83.01    141.00     52.00      0.00
  206                  0.00    140.11     60.27      0.00
  207                 88.13    140.31     56.90      0.00
  208                  0.00    139.88     53.68      0.00
  209                  1.10    139.48     61.30      0.00
  211                 11.01    139.35     57.35      0.00
  213                 17.70    139.29     57.32      0.00
  215                117.08    139.11     57.24      0.00
  217                 30.76    139.10     57.67      0.00
  219                 52.48    139.09     58.53      0.00
  225                 28.96    139.09     56.80      0.00
  229                 81.51    139.19     55.76      0.00
  231                 20.93    139.19     58.14      0.00
  237                 19.82    139.28     54.28      0.00
  239                 56.65    139.28     54.72      0.00
  241                  0.00    139.28     54.72      0.00
  243                  5.51    139.28     54.28      0.00
  247                 89.38    139.28     52.55      0.00
  249                  0.00    139.28     52.55      0.00
  251                 30.68    139.29     47.36      0.00
  253                 69.24    139.37     44.79      0.00
  255                 51.30    139.42     48.71      0.00
  257                  0.00    152.32     58.63      0.00
  259                  0.00    151.89     54.98      0.00
  261                  0.00    150.33     65.14      0.00
  263                  0.00    150.17     65.07      0.00
  265                  0.00    147.88     64.08      0.00
  267                  0.00    146.40     54.34      0.00
  269                  0.00    146.64     63.54      0.00
  271                  0.00    145.92     60.63      0.00
  273                  0.00    141.00     57.63      0.00
  275                  0.00    140.31     56.46      0.00
  River           -13151.26    220.00      0.00      0.00  Reservoir
  Lake                 0.00    167.00      0.00      0.00  Reservoir
  1                  485.08    145.00      5.68      0.00  Tank
  2                 -291.80    140.00     10.18      0.00  Tank
  3                 2381.75    158.00     12.57      0.00  Tank
   
   
  Link Results at 0:00:00 hrs:
  ----------------------------------------------
                       Flow  Velocity  Headloss
  Link                  gpm       fps   /1000ft
  ----------------------------------------------
  20               -2381.75      0.10      0.00
  40                -485.08      0.02      0.00
  50                 291.80      0.01      0.00
  60               13151.26      9.33      8.92
  101                  0.00      0.00      0.00
  103                176.52      0.28      0.03
  105               -417.75      1.19      0.50
  107                 41.80      0.12      0.01
  109                  7.35      0.01      0.00
  111               -286.52      0.81      0.25
  112                510.91      1.45      0.73
  113                -44.78      0.13      0.01
  114                129.92      0.83      0.42
  115                -27.59      0.18      0.02
  116                 59.73      0.17      0.01
  117                631.48      1.79      1.08
  119               -734.59      2.08      1.43
  120               1149.76      3.26      3.28
  121               1031.17      2.93      2.68
  122                365.80      2.33      2.84
  123               9762.00      4.43      1.71
  125              13151.26      5.97      2.97
  129               2970.59      2.11      0.65
  131               2712.50      1.92      0.55
  133              -2381.75      2.43      1.05
  135                308.32      0.22      0.01
  137                 54.29      0.09      0.00
  145                254.02      1.62      1.44
  147                246.54      1.57      1.37
  149               -500.11      3.19      5.06
  151               -492.24      3.14      4.92
  153                266.08      0.75      0.22
  155                301.17      0.85      0.27
  159               -312.03      0.89      0.29
  161               -346.41      2.21      2.56
  163               -144.08      0.41      0.07
  169                200.18      1.28      0.93
  171                385.82      1.09      0.43
  173               8002.74      3.63      1.18
  175               7936.97      3.60      1.17
  177               7884.49      3.58      1.15
  179               7616.73      3.46      1.08
  180                  3.30      0.01      0.00
  181                  3.30      0.01      0.00
  183               7400.29      3.36      1.02
  185                -18.49      0.12      0.01
  186                351.71      2.24      2.64
  187               6780.11      3.08      0.87
  189               4643.77      2.11      0.43
  191              -2086.37      1.48      0.34
  193              -1801.91      1.28      0.26
  195                436.89      1.24      0.55
  197                363.01      1.03      0.39
  199               -122.07      0.35      0.05
  201               -485.08      1.38      0.66
  202                538.85      3.44      5.81
  203                219.72      1.40      1.10
  204                538.85      1.53      0.81
  205                351.71      1.00      0.37
  207                341.79      0.97      0.35
  209                153.21      0.98      0.57
  211                601.69      1.71      0.99
  213                198.50      0.56      0.13
  215                182.79      0.52      0.11
  217               -235.25      0.67      0.17
  219               -247.69      0.70      0.19
  221                247.69      1.58      1.38
  223                 67.26      0.19      0.02
  225                 88.90      0.25      0.03
  229               4643.77      3.29      1.28
  231               4386.68      3.11      1.15
  233               4410.98      3.13      1.35
  235                105.55      0.30      0.04
  237                450.81      1.28      0.58
  238                392.32      1.11      0.45
  239                 29.63      0.08      0.00
  240                392.32      1.11      0.45
  241                392.32      1.11      0.45
  243                391.21      0.62      0.11
  245                285.32      0.46      0.06
  247                229.27      0.37      0.04
  249                112.19      0.18      0.01
  251                 52.48      0.11      0.01
  257                 28.96      0.08      0.00
  261                 38.34      0.24      0.04
  263                 20.93      0.06      0.00
  269                 94.89      0.27      0.03
  271                 64.10      0.41      0.11
  273                 10.96      0.03      0.00
  275                -13.89      0.04      0.00
  277                  5.51      0.02      0.00
  281                -19.40      0.08      0.00
  283                -31.80      0.09      0.00
  285                 -2.57      0.01      0.00
  287               -106.21      0.43      0.10
  289                291.80      1.19      0.63
  291                 69.24      0.28      0.04
  293                 65.06      0.42      0.12
  295                -34.37      0.10      0.00
  297                484.39      3.09      4.77
  299                232.72      1.49      1.23
  301                232.72      1.49      1.23
  303                251.66      1.61      1.42
  305                147.09      0.42      0.07
  307                398.75      1.13      0.46
  309                201.18      1.28      0.94
  311                -18.39      0.05      0.00
  313                449.27      1.27      0.58
  315              -2238.80      1.59      0.39
  317                110.59      0.71      0.31
  319                 -5.03      0.01      0.00
  321               7601.47      3.45      1.08
  323                -80.95      0.23      0.02
  325                152.42      0.97      0.56
  329              13151.26      5.97      3.01
  330                  0.00      0.00      0.00
  333                 -0.00      0.00      0.00
  10                   0.00      0.00      0.00  Pump
  335              13151.26      0.00    -93.50  Pump
   
   
  Node Results at 0:05:00 hrs:
  --------------------------------------------------------
                     Demand      Head  Pressure  Chemical
  Node                  gpm        ft       psi      mg/L
  --------------------------------------------------------
  10                   0.00    145.99     -0.44      0.00
  15                 492.24    136.91     45.46      0.00
  20                   0.00    158.08     12.60      0.00
  35                1801.91    145.85     57.78      0.00
  40                   0.00    145.06      5.70      0.00
  50                   0.00    139.90     10.14      0.00
  60                   0.00    209.02     90.57      0.00
  601                  0.00    302.54    131.09      0.00
  61                   0.00    302.54    131.09      0.00
  101                241.24    145.99     45.06      0.00
  103                169.16    145.95     44.61      0.00
  105                171.92    147.27     51.46      0.00
  107                 69.39    147.26     54.27      0.00
  109                293.88    145.95     54.45      0.00
  111                180.26    146.45     59.13      0.00
  113                 25.41    146.47     62.60      0.00
  115                 66.17    147.30     57.76      0.00
  117                149.49    150.43     59.29      0.00
  119                223.69    157.85     67.53      0.00
  120                  0.00    155.45     67.36      0.00
  121                 52.87    161.27     70.74      0.00
  123                  0.00    165.72     67.04      0.00
  125                 57.91    160.67     64.85      0.00
  127                 22.43    158.89     44.58      0.00
  129                  0.00    158.89     46.75      0.00
  131                 54.29    158.87     66.24      0.00
  139                  7.48    154.91     53.69      0.00
  141                 12.51    152.11     64.17      0.00
  143                  7.87    145.02     64.79      0.00
  145                 35.09    152.87     65.81      0.00
  147                 10.86    153.48     58.48      0.00
  149                 34.38    153.73     59.68      0.00
  151                183.49    156.35     53.23      0.00
  153                 56.10    156.43     39.10      0.00
  157                 65.77    155.38     61.65      0.00
  159                 52.48    151.99     63.26      0.00
  161                 20.07    149.68     63.13      0.00
  163                 11.96    149.22     62.49      0.00
  164                  0.00    149.22     62.49      0.00
  166                  3.30    149.22     65.52      0.00
  167                 18.49    147.32     66.00      0.00
  169                  0.00    147.32     66.00      0.00
  171                 49.96    146.22     65.09      0.00
  173                  0.00    146.19     65.08      0.00
  177                 73.88    145.84     59.73      0.00
  179                  0.00    145.83     59.72      0.00
  181                  0.00    145.86     59.73      0.00
  183                  0.00    145.84     58.43      0.00
  184                  0.00    144.69     55.76      0.00
  185                 32.58    145.28     56.02      0.00
  187                  0.00    146.03     57.86      0.00
  189                137.06    146.31     61.66      0.00
  191                104.01    146.35     52.58      0.00
  193                 90.56    146.44     55.66      0.00
  195                  0.00    146.51     56.77      0.00
  197                 21.64    146.37     53.46      0.00
  199                151.54    141.05     61.99      0.00
  201                 56.65    140.33     60.76      0.00
  203               4410.98    140.16     59.87      0.00
  204                  0.00    145.76     54.06      0.00
  205                 83.01    141.03     52.01      0.00
  206                  0.00    140.11     60.28      0.00
  207                 88.13    140.32     56.90      0.00
  208                  0.00    139.87     53.67      0.00
  209                  1.10    139.46     61.29      0.00
  211                 11.01    139.32     57.33      0.00
  213                 17.70    139.26     57.31      0.00
  215                117.08    139.08     57.23      0.00
  217                 30.76    139.06     57.66      0.00
  219                 52.48    139.05     58.52      0.00
  225                 28.96    139.06     56.79      0.00
  229                 81.51    139.15     55.74      0.00
  231                 20.93    139.15     58.13      0.00
  237                 19.82    139.24     54.27      0.00
  239                 56.65    139.24     54.70      0.00
  241                  0.00    139.24     54.70      0.00
  243                  5.51    139.24     54.26      0.00
  247                 89.38    139.24     52.53      0.00
  249                  0.00    139.24     52.53      0.00
  251                 30.68    139.24     47.33      0.00
  253                 69.24    139.31     44.76      0.00
  255                 51.30    139.36     48.68      0.00
  257                  0.00    152.37     58.66      0.00
  259                  0.00    151.94     55.00      0.00
  261                  0.00    150.38     65.16      0.00
  263                  0.00    150.22     65.09      0.00
  265                  0.00    147.93     64.10      0.00
  267                  0.00    146.45     54.36      0.00
  269                  0.00    146.68     63.56      0.00
  271                  0.00    145.96     60.64      0.00
  273                  0.00    141.03     57.64      0.00
  275                  0.00    140.33     56.47      0.00
  River           -13149.33    220.00      0.00      0.00  Reservoir
  Lake                 0.00    167.00      0.00      0.00  Reservoir
  1                  480.35    145.06      5.70      0.00  Tank
  2                 -281.32    139.90     10.14      0.00  Tank
  3                 2374.07    158.08     12.60      0.00  Tank
   
   
  Link Results at 0:05:00 hrs:
  ----------------------------------------------
                       Flow  Velocity  Headloss
  Link                  gpm       fps   /1000ft
  ----------------------------------------------
  20               -2374.07      0.10      0.00
  40                -480.35      0.02      0.00
  50                 281.32      0.01      0.00
  60               13149.33      9.33      8.92
  101                  0.00      0.00      0.00
  103                176.70      0.28      0.03
  105               -417.94      1.19      0.50
  107                 41.92      0.12      0.01
  109                  7.54      0.01      0.00
  111               -286.34      0.81      0.25
  112                511.32      1.45      0.73
  113                -44.45      0.13      0.01
  114                130.05      0.83      0.42
  115                -27.47      0.18      0.02
  116                 60.18      0.17      0.01
  117                631.78      1.79      1.08
  119               -735.01      2.09      1.43
  120               1150.29      3.26      3.28
  121               1031.66      2.93      2.69
  122                365.99      2.34      2.84
  123               9767.29      4.43      1.71
  125              13149.33      5.97      2.97
  129               2963.18      2.10      0.65
  131               2704.99      1.92      0.55
  133              -2374.07      2.42      1.04
  135                308.50      0.22      0.01
  137                 54.29      0.09      0.00
  145                254.20      1.62      1.45
  147                246.72      1.57      1.37
  149               -500.11      3.19      5.06
  151               -492.24      3.14      4.92
  153                265.90      0.75      0.22
  155                300.99      0.85      0.27
  159               -311.85      0.88      0.29
  161               -346.23      2.21      2.56
  163               -144.18      0.41      0.07
  169                200.28      1.28      0.93
  171                385.53      1.09      0.43
  173               8007.77      3.63      1.18
  175               7942.00      3.60      1.17
  177               7889.52      3.58      1.15
  179               7621.69      3.46      1.08
  180                  3.30      0.01      0.00
  181                  3.30      0.01      0.00
  183               7405.25      3.36      1.02
  185                -18.49      0.12      0.01
  186                352.32      2.25      2.65
  187               6785.12      3.08      0.87
  189               4653.00      2.11      0.43
  191              -2082.16      1.48      0.34
  193              -1801.91      1.28      0.26
  195                432.75      1.23      0.54
  197                358.88      1.02      0.38
  199               -121.47      0.34      0.05
  201               -480.35      1.36      0.65
  202                540.11      3.45      5.84
  203                220.36      1.41      1.11
  204                540.11      1.53      0.81
  205                352.32      1.00      0.37
  207                341.83      0.97      0.35
  209                153.42      0.98      0.57
  211                601.63      1.71      0.99
  213                198.90      0.56      0.13
  215                183.18      0.52      0.11
  217               -235.38      0.67      0.17
  219               -247.77      0.70      0.19
  221                247.77      1.58      1.38
  223                 67.53      0.19      0.02
  225                 89.17      0.25      0.03
  229               4653.00      3.30      1.28
  231               4394.72      3.12      1.16
  233               4410.98      3.13      1.35
  235                106.74      0.30      0.04
  237                452.99      1.29      0.58
  238                402.80      1.14      0.47
  239                 37.94      0.11      0.01
  240                402.80      1.14      0.47
  241                402.80      1.14      0.47
  243                401.70      0.64      0.12
  245                286.91      0.46      0.06
  247                229.27      0.37      0.04
  249                112.19      0.18      0.01
  251                 52.48      0.11      0.01
  257                 28.96      0.08      0.00
  261                 39.93      0.25      0.05
  263                 20.93      0.06      0.00
  269                103.78      0.29      0.04
  271                 62.51      0.40      0.11
  273                 21.44      0.06      0.00
  275                 -9.80      0.03      0.00
  277                  5.51      0.02      0.00
  281                -15.31      0.06      0.00
  283                -25.41      0.07      0.00
  285                 -5.10      0.01      0.00
  287                -99.60      0.41      0.09
  289                281.32      1.15      0.59
  291                 69.24      0.28      0.04
  293                 61.19      0.39      0.10
  295                -30.51      0.09      0.00
  297                484.62      3.09      4.78
  299                232.83      1.49      1.23
  301                232.83      1.49      1.23
  303                251.78      1.61      1.42
  305                147.16      0.42      0.07
  307                398.95      1.13      0.46
  309                201.17      1.28      0.94
  311                -17.99      0.05      0.00
  313                449.13      1.27      0.58
  315              -2234.66      1.58      0.38
  317                110.86      0.71      0.31
  319                 -4.11      0.01      0.00
  321               7606.42      3.45      1.08
  323                -72.92      0.21      0.02
  325                152.50      0.97      0.56
  329              13149.33      5.97      3.01
  330                  0.00      0.00      0.00
  333                 -0.00      0.00      0.00
  10                   0.00      0.00      0.00  Pump
  335              13149.33      0.00    -93.52  Pump
   
   
  Node Results at 0:10:00 hrs:
  --------------------------------------------------------
                     Demand      Head  Pressure  Chemical
  Node                  gpm        ft       psi      mg/L
  --------------------------------------------------------
  10                   0.00    146.03     -0.42      0.00
  15                 492.24    136.97     45.48      0.00
  20                   0.00    158.15     12.63      0.00
  35                1801.91    145.90     57.80      0.00
  40                   0.00    145.11      5.73      0.00
  50                   0.00    139.80     10.10      0.00
  60                   0.00    209.03     90.57      0.00
  601                  0.00    302.56    131.10      0.00
  61                   0.00    302.56    131.10      0.00
  101                241.24    146.03     45.08      0.00
  103                169.16    146.00     44.63      0.00
  105                171.92    147.31     51.48      0.00
  107                 69.39    147.30     54.29      0.00
  109                293.88    146.00     54.47      0.00
  111                180.26    146.50     59.15      0.00
  113                 25.41    146.51     62.62      0.00
  115                 66.17    147.35     57.78      0.00
  117                149.49    150.48     59.31      0.00
  119                223.69    157.90     67.55      0.00
  120                  0.00    155.50     67.38      0.00
  121                 52.87    161.33     70.77      0.00
  123                  0.00    165.78     67.07      0.00
  125                 57.91    160.73     64.88      0.00
  127                 22.43    158.97     44.61      0.00
  129                  0.00    158.96     46.78      0.00
  131                 54.29    158.94     66.27      0.00
  139                  7.48    154.98     53.72      0.00
  141                 12.51    152.17     64.20      0.00
  143                  7.87    145.08     64.81      0.00
  145                 35.09    152.93     65.83      0.00
  147                 10.86    153.54     58.51      0.00
  149                 34.38    153.79     59.71      0.00
  151                183.49    156.40     53.25      0.00
  153                 56.10    156.49     39.12      0.00
  157                 65.77    155.44     61.67      0.00
  159                 52.48    152.04     63.28      0.00
  161                 20.07    149.73     63.14      0.00
  163                 11.96    149.26     62.51      0.00
  164                  0.00    149.26     62.51      0.00
  166                  3.30    149.26     65.54      0.00
  167                 18.49    147.37     66.02      0.00
  169                  0.00    147.37     66.02      0.00
  171                 49.96    146.26     65.11      0.00
  173                  0.00    146.24     65.10      0.00
  177                 73.88    145.89     59.75      0.00
  179                  0.00    145.88     59.74      0.00
  181                  0.00    145.90     59.75      0.00
  183                  0.00    145.89     58.45      0.00
  184                  0.00    144.73     55.78      0.00
  185                 32.58    145.32     56.03      0.00
  187                  0.00    146.07     57.88      0.00
  189                137.06    146.36     61.68      0.00
  191                104.01    146.40     52.60      0.00
  193                 90.56    146.49     55.67      0.00
  195                  0.00    146.56     56.79      0.00
  197                 21.64    146.42     53.48      0.00
  199                151.54    141.08     62.00      0.00
  201                 56.65    140.35     60.77      0.00
  203               4410.98    140.18     59.88      0.00
  204                  0.00    145.81     54.08      0.00
  205                 83.01    141.05     52.02      0.00
  206                  0.00    140.12     60.28      0.00
  207                 88.13    140.34     56.91      0.00
  208                  0.00    139.87     53.67      0.00
  209                  1.10    139.43     61.28      0.00
  211                 11.01    139.28     57.32      0.00
  213                 17.70    139.22     57.29      0.00
  215                117.08    139.05     57.22      0.00
  217                 30.76    139.03     57.64      0.00
  219                 52.48    139.02     58.50      0.00
  225                 28.96    139.02     56.77      0.00
  229                 81.51    139.11     55.73      0.00
  231                 20.93    139.11     58.11      0.00
  237                 19.82    139.19     54.25      0.00
  239                 56.65    139.19     54.68      0.00
  241                  0.00    139.19     54.68      0.00
  243                  5.51    139.19     54.24      0.00
  247                 89.38    139.19     52.51      0.00
  249                  0.00    139.19     52.51      0.00
  251                 30.68    139.20     47.31      0.00
  253                 69.24    139.25     44.74      0.00
  255                 51.30    139.30     48.66      0.00
  257                  0.00    152.42     58.68      0.00
  259                  0.00    151.99     55.02      0.00
  261                  0.00    150.43     65.18      0.00
  263                  0.00    150.27     65.11      0.00
  265                  0.00    147.97     64.12      0.00
  267                  0.00    146.49     54.37      0.00
  269                  0.00    146.73     63.58      0.00
  271                  0.00    146.00     60.66      0.00
  273                  0.00    141.05     57.65      0.00
  275                  0.00    140.35     56.48      0.00
  River           -13147.39    220.00      0.00      0.00  Reservoir
  Lake                 0.00    167.00      0.00      0.00  Reservoir
  1                  475.83    145.11      5.73      0.00  Tank
  2                 -271.14    139.80     10.10      0.00  Tank
  3                 2366.47    158.15     12.63      0.00  Tank
   
   
  Link Results at 0:10:00 hrs:
  ----------------------------------------------
                       Flow  Velocity  Headloss
  Link                  gpm       fps   /1000ft
  ----------------------------------------------
  20               -2366.47      0.10      0.00
  40                -475.83      0.02      0.00
  50                 271.14      0.01      0.00
  60               13147.39      9.32      8.91
  101                  0.00      0.00      0.00
  103                176.88      0.28      0.03
  105               -418.12      1.19      0.50
  107                 42.04      0.12      0.01
  109                  7.72      0.01      0.00
  111               -286.16      0.81      0.25
  112                511.73      1.45      0.73
  113                -44.13      0.13      0.01
  114                130.17      0.83      0.42
  115                -27.35      0.17      0.02
  116                 60.63      0.17      0.01
  117                632.08      1.79      1.08
  119               -735.42      2.09      1.43
  120               1150.82      3.26      3.29
  121               1032.15      2.93      2.69
  122                366.17      2.34      2.84
  123               9772.49      4.44      1.71
  125              13147.39      5.97      2.97
  129               2955.86      2.10      0.64
  131               2697.57      1.91      0.54
  133              -2366.47      2.42      1.04
  135                308.67      0.22      0.01
  137                 54.29      0.09      0.00
  145                254.38      1.62      1.45
  147                246.90      1.58      1.37
  149               -500.11      3.19      5.06
  151               -492.24      3.14      4.92
  153                265.72      0.75      0.22
  155                300.81      0.85      0.27
  159               -311.67      0.88      0.29
  161               -346.05      2.21      2.56
  163               -144.29      0.41      0.07
  169                200.38      1.28      0.93
  171                385.26      1.09      0.43
  173               8012.73      3.64      1.19
  175               7946.96      3.61      1.17
  177               7894.48      3.58      1.15
  179               7626.56      3.46      1.08
  180                  3.30      0.01      0.00
  181                  3.30      0.01      0.00
  183               7410.13      3.36      1.03
  185                -18.49      0.12      0.01
  186                352.92      2.25      2.65
  187               6790.06      3.08      0.87
  189               4661.96      2.12      0.43
  191              -2078.14      1.47      0.34
  193              -1801.91      1.28      0.26
  195                428.80      1.22      0.53
  197                354.93      1.01      0.37
  199               -120.91      0.34      0.05
  201               -475.83      1.35      0.64
  202                541.33      3.46      5.86
  203                220.98      1.41      1.12
  204                541.33      1.54      0.81
  205                352.92      1.00      0.37
  207                341.89      0.97      0.35
  209                153.63      0.98      0.57
  211                601.58      1.71      0.99
  213                199.30      0.57      0.13
  215                183.57      0.52      0.11
  217               -235.51      0.67      0.17
  219               -247.85      0.70      0.19
  221                247.85      1.58      1.38
  223                 67.80      0.19      0.02
  225                 89.44      0.25      0.03
  229               4661.96      3.31      1.29
  231               4402.43      3.12      1.16
  233               4410.98      3.13      1.35
  235                108.00      0.31      0.04
  237                455.21      1.29      0.59
  238                412.98      1.17      0.49
  239                 45.90      0.13      0.01
  240                412.98      1.17      0.49
  241                412.98      1.17      0.49
  243                411.88      0.66      0.12
  245                288.53      0.46      0.06
  247                229.27      0.37      0.04
  249                112.19      0.18      0.01
  251                 52.48      0.11      0.01
  257                 28.96      0.08      0.00
  261                 41.55      0.27      0.05
  263                 20.93      0.06      0.00
  269                112.34      0.32      0.04
  271                 60.89      0.39      0.10
  273                 31.63      0.09      0.00
  275                 -5.98      0.02      0.00
  277                  5.51      0.02      0.00
  281                -11.49      0.05      0.00
  283                -19.05      0.05      0.00
  285                 -7.69      0.02      0.00
  287                -93.18      0.38      0.08
  289                271.14      1.11      0.55
  291                 69.24      0.28      0.04
  293                 57.43      0.37      0.09
  295                -26.74      0.08      0.00
  297                484.84      3.09      4.78
  299                232.94      1.49      1.23
  301                232.94      1.49      1.23
  303                251.90      1.61      1.42
  305                147.24      0.42      0.07
  307                399.14      1.13      0.46
  309                201.17      1.28      0.94
  311                -17.60      0.05      0.00
  313                449.00      1.27      0.58
  315              -2230.71      1.58      0.38
  317                111.10      0.71      0.31
  319                 -3.11      0.01      0.00
  321               7611.30      3.45      1.08
  323                -65.21      0.18      0.02
  325                152.58      0.97      0.56
  329              13147.39      5.97      3.01
  330                  0.00      0.00      0.00
  333                 -0.00      0.00      0.00
  10                   0.00      0.00      0.00  Pump
  335              13147.39      0.00    -93.54  Pump
   
   
  Node Results at 0:15:00 hrs:
  --------------------------------------------------------
                     Demand      Head  Pressure  Chemical
  Node                  gpm        ft       psi      mg/L
  --------------------------------------------------------
  10                   0.00    146.08     -0.40      0.00
  15                 492.24    137.03     45.51      0.00
  20                   0.00    158.23     12.66      0.00
  35                1801.91    145.94     57.82      0.00
  40                   0.00    145.17      5.75      0.00
  50                   0.00    139.71     10.06      0.00
  60                   0.00    209.03     90.57      0.00
  601                  0.00    302.58    131.11      0.00
  61                   0.00    302.58    131.11      0.00
  101                241.24    146.08     45.10      0.00
  103                169.16    146.04     44.65      0.00
  105                171.92    147.36     51.50      0.00
  107                 69.39    147.35     54.31      0.00
  109                293.88    146.04     54.49      0.00
  111                180.26    146.54     59.16      0.00
  113                 25.41    146.56     62.64      0.00
  115                 66.17    147.39     57.80      0.00
  117                149.49    150.53     59.33      0.00
  119                223.69    157.96     67.58      0.00
  120                  0.00    155.56     67.40      0.00
  121                 52.87    161.39     70.80      0.00
  123                  0.00    165.84     67.09      0.00
  125                 57.91    160.79     64.90      0.00
  127                 22.43    159.04     44.65      0.00
  129                  0.00    159.03     46.81      0.00
  131                 54.29    159.01     66.30      0.00
  139                  7.48    155.04     53.75      0.00
  141                 12.51    152.23     64.23      0.00
  143                  7.87    145.14     64.84      0.00
  145                 35.09    152.99     65.86      0.00
  147                 10.86    153.60     58.54      0.00
  149                 34.38    153.85     59.73      0.00
  151                183.49    156.46     53.28      0.00
  153                 56.10    156.54     39.15      0.00
  157                 65.77    155.49     61.70      0.00
  159                 52.48    152.09     63.30      0.00
  161                 20.07    149.78     63.16      0.00
  163                 11.96    149.31     62.53      0.00
  164                  0.00    149.31     62.53      0.00
  166                  3.30    149.31     65.56      0.00
  167                 18.49    147.41     66.04      0.00
  169                  0.00    147.41     66.04      0.00
  171                 49.96    146.30     65.12      0.00
  173                  0.00    146.28     65.12      0.00
  177                 73.88    145.93     59.77      0.00
  179                  0.00    145.92     59.76      0.00
  181                  0.00    145.95     59.77      0.00
  183                  0.00    145.93     58.47      0.00
  184                  0.00    144.77     55.80      0.00
  185                 32.58    145.36     56.05      0.00
  187                  0.00    146.11     57.89      0.00
  189                137.06    146.40     61.70      0.00
  191                104.01    146.44     52.62      0.00
  193                 90.56    146.53     55.69      0.00
  195                  0.00    146.60     56.81      0.00
  197                 21.64    146.46     53.50      0.00
  199                151.54    141.10     62.01      0.00
  201                 56.65    140.37     60.78      0.00
  203               4410.98    140.21     59.88      0.00
  204                  0.00    145.85     54.10      0.00
  205                 83.01    141.07     52.03      0.00
  206                  0.00    140.12     60.28      0.00
  207                 88.13    140.36     56.92      0.00
  208                  0.00    139.86     53.67      0.00
  209                  1.10    139.41     61.27      0.00
  211                 11.01    139.25     57.31      0.00
  213                 17.70    139.19     57.28      0.00
  215                117.08    139.02     57.20      0.00
  217                 30.76    139.00     57.63      0.00
  219                 52.48    138.99     58.49      0.00
  225                 28.96    138.99     56.76      0.00
  229                 81.51    139.07     55.71      0.00
  231                 20.93    139.07     58.09      0.00
  237                 19.82    139.15     54.23      0.00
  239                 56.65    139.15     54.66      0.00
  241                  0.00    139.15     54.66      0.00
  243                  5.51    139.14     54.23      0.00
  247                 89.38    139.15     52.49      0.00
  249                  0.00    139.15     52.49      0.00
  251                 30.68    139.15     47.29      0.00
  253                 69.24    139.19     44.71      0.00
  255                 51.30    139.24     48.63      0.00
  257                  0.00    152.47     58.70      0.00
  259                  0.00    152.04     55.05      0.00
  261                  0.00    150.48     65.20      0.00
  263                  0.00    150.32     65.13      0.00
  265                  0.00    148.01     64.13      0.00
  267                  0.00    146.53     54.39      0.00
  269                  0.00    146.77     63.60      0.00
  271                  0.00    146.04     60.68      0.00
  273                  0.00    141.07     57.66      0.00
  275                  0.00    140.37     56.49      0.00
  River           -13145.46    220.00      0.00      0.00  Reservoir
  Lake                 0.00    167.00      0.00      0.00  Reservoir
  1                  471.51    145.17      5.75      0.00  Tank
  2                 -261.23    139.71     10.06      0.00  Tank
  3                 2358.95    158.23     12.66      0.00  Tank
   
   
  Link Results at 0:15:00 hrs:
  ----------------------------------------------
                       Flow  Velocity  Headloss
  Link                  gpm       fps   /1000ft
  ----------------------------------------------
  20               -2358.95      0.10      0.00
  40                -471.51      0.02      0.00
  50                 261.23      0.01      0.00
  60               13145.46      9.32      8.91
  101                  0.00      0.00      0.00
  103                177.06      0.28      0.03
  105               -418.30      1.19      0.50
  107                 42.16      0.12      0.01
  109                  7.89      0.01      0.00
  111               -285.98      0.81      0.25
  112                512.14      1.45      0.73
  113                -43.81      0.12      0.01
  114                130.29      0.83      0.42
  115                -27.23      0.17      0.02
  116                 61.07      0.17      0.01
  117                632.38      1.79      1.08
  119               -735.82      2.09      1.44
  120               1151.34      3.27      3.29
  121               1032.62      2.93      2.69
  122                366.35      2.34      2.84
  123               9777.63      4.44      1.71
  125              13145.46      5.97      2.97
  129               2948.61      2.09      0.64
  131               2690.22      1.91      0.54
  133              -2358.95      2.41      1.03
  135                308.85      0.22      0.01
  137                 54.29      0.09      0.00
  145                254.55      1.62      1.45
  147                247.07      1.58      1.37
  149               -500.11      3.19      5.06
  151               -492.24      3.14      4.92
  153                265.55      0.75      0.22
  155                300.64      0.85      0.27
  159               -311.50      0.88      0.29
  161               -345.88      2.21      2.56
  163               -144.39      0.41      0.07
  169                200.48      1.28      0.93
  171                384.98      1.09      0.43
  173               8017.62      3.64      1.19
  175               7951.84      3.61      1.17
  177               7899.37      3.59      1.15
  179               7631.37      3.46      1.08
  180                  3.30      0.01      0.00
  181                  3.30      0.01      0.00
  183               7414.94      3.37      1.03
  185                -18.49      0.12      0.01
  186                353.51      2.26      2.66
  187               6794.92      3.08      0.87
  189               4670.68      2.12      0.44
  191              -2074.27      1.47      0.33
  193              -1801.91      1.28      0.26
  195                425.01      1.21      0.52
  197                351.14      1.00      0.36
  199               -120.37      0.34      0.05
  201               -471.51      1.34      0.63
  202                542.52      3.46      5.89
  203                221.58      1.41      1.12
  204                542.52      1.54      0.82
  205                353.51      1.00      0.37
  207                341.95      0.97      0.35
  209                153.83      0.98      0.57
  211                601.54      1.71      0.99
  213                199.69      0.57      0.13
  215                183.95      0.52      0.11
  217               -235.64      0.67      0.17
  219               -247.93      0.70      0.19
  221                247.93      1.58      1.38
  223                 68.06      0.19      0.02
  225                 89.70      0.25      0.03
  229               4670.68      3.31      1.29
  231               4409.85      3.13      1.16
  233               4410.98      3.13      1.35
  235                109.30      0.31      0.04
  237                457.48      1.30      0.60
  238                422.90      1.20      0.51
  239                 53.54      0.15      0.01
  240                422.90      1.20      0.51
  241                422.90      1.20      0.51
  243                421.79      0.67      0.13
  245                290.17      0.46      0.06
  247                229.27      0.37      0.04
  249                112.19      0.18      0.01
  251                 52.48      0.11      0.01
  257                 28.96      0.08      0.00
  261                 43.19      0.28      0.05
  263                 20.93      0.06      0.00
  269                120.61      0.34      0.05
  271                 59.25      0.38      0.10
  273                 41.54      0.12      0.01
  275                 -2.24      0.01      0.00
  277                  5.51      0.02      0.00
  281                 -7.75      0.03      0.00
  283                -12.88      0.04      0.00
  285                -10.19      0.03      0.00
  287                -86.94      0.36      0.07
  289                261.23      1.07      0.51
  291                 69.24      0.28      0.04
  293                 53.75      0.34      0.08
  295                -23.07      0.07      0.00
  297                485.07      3.10      4.78
  299                233.05      1.49      1.23
  301                233.05      1.49      1.23
  303                252.02      1.61      1.42
  305                147.31      0.42      0.07
  307                399.33      1.13      0.46
  309                201.16      1.28      0.94
  311                -17.21      0.05      0.00
  313                448.88      1.27      0.57
  315              -2226.92      1.58      0.38
  317                111.32      0.71      0.31
  319                 -2.03      0.01      0.00
  321               7616.11      3.46      1.08
  323                -57.78      0.16      0.01
  325                152.65      0.97      0.56
  329              13145.46      5.97      3.01
  330                  0.00      0.00      0.00
  333                 -0.00      0.00      0.00
  10                   0.00      0.00      0.00  Pump
  335              13145.46      0.00    -93.55  Pump
   
   
  Node Results at 0:20:00 hrs:
  --------------------------------------------------------
                     Demand      Head  Pressure  Chemical
  Node                  gpm        ft       psi      mg/L
  --------------------------------------------------------
  10                   0.00    146.12     -0.38      0.00
  15                 492.24    137.09     45.54      0.00
  20                   0.00    158.30     12.70      0.00
  35                1801.91    145.98     57.84      0.00
  40                   0.00    145.23      5.77      0.00
  50                   0.00    139.62     10.02      0.00
  60                   0.00    209.03     90.57      0.00
  601                  0.00    302.60    131.12      0.00
  61                   0.00    302.60    131.12      0.00
  101                241.24    146.12     45.12      0.00
  103                169.16    146.09     44.67      0.00
  105                171.92    147.41     51.52      0.00
  107                 69.39    147.40     54.33      0.00
  109                293.88    146.09     54.50      0.00
  111                180.26    146.59     59.18      0.00
  113                 25.41    146.60     62.66      0.00
  115                 66.17    147.44     57.82      0.00
  117                149.49    150.57     59.35      0.00
  119                223.69    158.01     67.60      0.00
  120                  0.00    155.61     67.43      0.00
  121                 52.87    161.44     70.82      0.00
  123                  0.00    165.89     67.11      0.00
  125                 57.91    160.85     64.93      0.00
  127                 22.43    159.11     44.68      0.00
  129                  0.00    159.10     46.84      0.00
  131                 54.29    159.08     66.33      0.00
  139                  7.48    155.11     53.78      0.00
  141                 12.51    152.29     64.25      0.00
  143                  7.87    145.20     64.87      0.00
  145                 35.09    153.05     65.88      0.00
  147                 10.86    153.65     58.56      0.00
  149                 34.38    153.91     59.76      0.00
  151                183.49    156.52     53.30      0.00
  153                 56.10    156.60     39.17      0.00
  157                 65.77    155.54     61.72      0.00
  159                 52.48    152.13     63.32      0.00
  161                 20.07    149.82     63.18      0.00
  163                 11.96    149.36     62.55      0.00
  164                  0.00    149.36     62.55      0.00
  166                  3.30    149.36     65.58      0.00
  167                 18.49    147.45     66.06      0.00
  169                  0.00    147.45     66.06      0.00
  171                 49.96    146.34     65.14      0.00
  173                  0.00    146.32     65.13      0.00
  177                 73.88    145.97     59.78      0.00
  179                  0.00    145.96     59.78      0.00
  181                  0.00    145.99     59.79      0.00
  183                  0.00    145.97     58.48      0.00
  184                  0.00    144.81     55.81      0.00
  185                 32.58    145.40     56.07      0.00
  187                  0.00    146.16     57.91      0.00
  189                137.06    146.44     61.72      0.00
  191                104.01    146.49     52.64      0.00
  193                 90.56    146.58     55.71      0.00
  195                  0.00    146.65     56.83      0.00
  197                 21.64    146.51     53.52      0.00
  199                151.54    141.13     62.02      0.00
  201                 56.65    140.39     60.79      0.00
  203               4410.98    140.23     59.89      0.00
  204                  0.00    145.89     54.11      0.00
  205                 83.01    141.09     52.04      0.00
  206                  0.00    140.13     60.29      0.00
  207                 88.13    140.37     56.92      0.00
  208                  0.00    139.86     53.67      0.00
  209                  1.10    139.38     61.26      0.00
  211                 11.01    139.22     57.29      0.00
  213                 17.70    139.16     57.27      0.00
  215                117.08    138.99     57.19      0.00
  217                 30.76    138.97     57.61      0.00
  219                 52.48    138.96     58.48      0.00
  225                 28.96    138.96     56.75      0.00
  229                 81.51    139.03     55.69      0.00
  231                 20.93    139.03     58.07      0.00
  237                 19.82    139.11     54.21      0.00
  239                 56.65    139.10     54.64      0.00
  241                  0.00    139.10     54.64      0.00
  243                  5.51    139.10     54.21      0.00
  247                 89.38    139.10     52.47      0.00
  249                  0.00    139.10     52.47      0.00
  251                 30.68    139.10     47.27      0.00
  253                 69.24    139.13     44.69      0.00
  255                 51.30    139.18     48.61      0.00
  257                  0.00    152.52     58.72      0.00
  259                  0.00    152.09     55.07      0.00
  261                  0.00    150.53     65.22      0.00
  263                  0.00    150.37     65.15      0.00
  265                  0.00    148.06     64.15      0.00
  267                  0.00    146.58     54.41      0.00
  269                  0.00    146.81     63.61      0.00
  271                  0.00    146.09     60.70      0.00
  273                  0.00    141.09     57.67      0.00
  275                  0.00    140.39     56.50      0.00
  River           -13143.53    220.00      0.00      0.00  Reservoir
  Lake                 0.00    167.00      0.00      0.00  Reservoir
  1                  467.37    145.23      5.77      0.00  Tank
  2                 -251.57    139.62     10.02      0.00  Tank
  3                 2351.50    158.30     12.70      0.00  Tank
   
   
  Link Results at 0:20:00 hrs:
  ----------------------------------------------
                       Flow  Velocity  Headloss
  Link                  gpm       fps   /1000ft
  ----------------------------------------------
  20               -2351.50      0.10      0.00
  40                -467.37      0.02      0.00
  50                 251.57      0.01      0.00
  60               13143.53      9.32      8.91
  101                  0.00      0.00      0.00
  103                177.23      0.28      0.03
  105               -418.47      1.19      0.50
  107                 42.28      0.12      0.01
  109                  8.07      0.01      0.00
  111               -285.81      0.81      0.25
  112                512.54      1.45      0.74
  113                -43.49      0.12      0.01
  114                130.40      0.83      0.42
  115                -27.11      0.17      0.02
  116                 61.50      0.17      0.01
  117                632.67      1.79      1.09
  119               -736.22      2.09      1.44
  120               1151.85      3.27      3.29
  121               1033.09      2.93      2.69
  122                366.53      2.34      2.85
  123               9782.69      4.44      1.72
  125              13143.53      5.97      2.97
  129               2941.44      2.09      0.64
  131               2682.95      1.90      0.54
  133              -2351.50      2.40      1.03
  135                309.02      0.22      0.01
  137                 54.29      0.09      0.00
  145                254.72      1.63      1.45
  147                247.24      1.58      1.37
  149               -500.11      3.19      5.06
  151               -492.24      3.14      4.92
  153                265.38      0.75      0.22
  155                300.47      0.85      0.27
  159               -311.33      0.88      0.29
  161               -345.71      2.21      2.55
  163               -144.49      0.41      0.07
  169                200.58      1.28      0.93
  171                384.71      1.09      0.43
  173               8022.44      3.64      1.19
  175               7956.66      3.61      1.17
  177               7904.19      3.59      1.16
  179               7636.11      3.47      1.08
  180                  3.30      0.01      0.00
  181                  3.30      0.01      0.00
  183               7419.69      3.37      1.03
  185                -18.49      0.12      0.01
  186                354.09      2.26      2.67
  187               6799.70      3.09      0.87
  189               4679.18      2.12      0.44
  191              -2070.56      1.47      0.33
  193              -1801.91      1.28      0.26
  195                421.38      1.20      0.51
  197                347.50      0.99      0.36
  199               -119.86      0.34      0.05
  201               -467.37      1.33      0.62
  202                543.67      3.47      5.91
  203                222.16      1.42      1.13
  204                543.67      1.54      0.82
  205                354.09      1.00      0.37
  207                342.02      0.97      0.35
  209                154.02      0.98      0.57
  211                601.50      1.71      0.99
  213                200.07      0.57      0.13
  215                184.34      0.52      0.11
  217               -235.77      0.67      0.17
  219               -248.01      0.70      0.19
  221                248.01      1.58      1.38
  223                 68.32      0.19      0.02
  225                 89.96      0.26      0.03
  229               4679.18      3.32      1.30
  231               4417.01      3.13      1.17
  233               4410.98      3.13      1.35
  235                110.63      0.31      0.04
  237                459.77      1.30      0.60
  238                432.55      1.23      0.54
  239                 60.90      0.17      0.01
  240                432.55      1.23      0.54
  241                432.55      1.23      0.54
  243                431.44      0.69      0.13
  245                291.83      0.47      0.06
  247                229.27      0.37      0.04
  249                112.19      0.18      0.01
  251                 52.48      0.11      0.01
  257                 28.96      0.08      0.00
  261                 44.85      0.29      0.06
  263                 20.93      0.06      0.00
  269                128.61      0.36      0.06
  271                 57.59      0.37      0.09
  273                 51.19      0.15      0.01
  275                  1.46      0.00      0.00
  277                  5.51      0.02      0.00
  281                 -4.05      0.02      0.00
  283                 -6.92      0.02      0.00
  285                -12.57      0.04      0.00
  287                -80.87      0.33      0.06
  289                251.57      1.03      0.48
  291                 69.24      0.28      0.04
  293                 50.17      0.32      0.07
  295                -19.48      0.06      0.00
  297                485.29      3.10      4.79
  299                233.16      1.49      1.23
  301                233.16      1.49      1.23
  303                252.13      1.61      1.42
  305                147.38      0.42      0.07
  307                399.52      1.13      0.46
  309                201.16      1.28      0.94
  311                -16.82      0.05      0.00
  313                448.77      1.27      0.57
  315              -2223.29      1.58      0.38
  317                111.53      0.71      0.31
  319                 -0.89      0.00      0.00
  321               7620.85      3.46      1.08
  323                -50.63      0.14      0.01
  325                152.73      0.97      0.56
  329              13143.53      5.97      3.00
  330                  0.00      0.00      0.00
  333                 -0.00      0.00      0.00
  10                   0.00      0.00      0.00  Pump
  335              13143.53      0.00    -93.57  Pump
   
   
  Node Results at 0:25:00 hrs:
  --------------------------------------------------------
                     Demand      Head  Pressure  Chemical
  Node                  gpm        ft       psi      mg/L
  --------------------------------------------------------
  10                   0.00    146.17     -0.36      0.00
  15                 492.24    137.16     45.56      0.00
  20                   0.00    158.37     12.73      0.00
  35                1801.91    146.02     57.86      0.00
  40                   0.00    145.28      5.80      0.00
  50                   0.00    139.54      9.98      0.00
  60                   0.00    209.04     90.58      0.00
  601                  0.00    302.62    131.13      0.00
  61                   0.00    302.62    131.13      0.00
  101                241.24    146.17     45.14      0.00
  103                169.16    146.14     44.69      0.00
  105                171.92    147.45     51.54      0.00
  107                 69.39    147.44     54.35      0.00
  109                293.88    146.13     54.52      0.00
  111                180.26    146.63     59.20      0.00
  113                 25.41    146.65     62.67      0.00
  115                 66.17    147.49     57.84      0.00
  117                149.49    150.62     59.37      0.00
  119                223.69    158.07     67.62      0.00
  120                  0.00    155.66     67.45      0.00
  121                 52.87    161.50     70.85      0.00
  123                  0.00    165.95     67.14      0.00
  125                 57.91    160.91     64.96      0.00
  127                 22.43    159.17     44.71      0.00
  129                  0.00    159.17     46.87      0.00
  131                 54.29    159.15     66.36      0.00
  139                  7.48    155.17     53.80      0.00
  141                 12.51    152.35     64.28      0.00
  143                  7.87    145.27     64.89      0.00
  145                 35.09    153.11     65.91      0.00
  147                 10.86    153.71     58.59      0.00
  149                 34.38    153.97     59.78      0.00
  151                183.49    156.57     53.33      0.00
  153                 56.10    156.66     39.20      0.00
  157                 65.77    155.59     61.74      0.00
  159                 52.48    152.18     63.34      0.00
  161                 20.07    149.87     63.20      0.00
  163                 11.96    149.40     62.57      0.00
  164                  0.00    149.40     62.57      0.00
  166                  3.30    149.40     65.60      0.00
  167                 18.49    147.49     66.08      0.00
  169                  0.00    147.50     66.08      0.00
  171                 49.96    146.38     65.16      0.00
  173                  0.00    146.36     65.15      0.00
  177                 73.88    146.02     59.80      0.00
  179                  0.00    146.01     59.80      0.00
  181                  0.00    146.03     59.81      0.00
  183                  0.00    146.02     58.50      0.00
  184                  0.00    144.85     55.83      0.00
  185                 32.58    145.44     56.09      0.00
  187                  0.00    146.20     57.93      0.00
  189                137.06    146.49     61.74      0.00
  191                104.01    146.53     52.66      0.00
  193                 90.56    146.62     55.73      0.00
  195                  0.00    146.69     56.84      0.00
  197                 21.64    146.55     53.53      0.00
  199                151.54    141.15     62.03      0.00
  201                 56.65    140.41     60.80      0.00
[...]
  219                 80.57    135.49     56.98      0.00
  225                 44.46    135.51     55.25      0.00
  229                125.15    135.82     54.30    122.19
  231                 32.14    135.81     56.68      0.00
  237                 30.44    136.07     52.89     83.83
  239                 86.99    136.10     53.34     85.77
  241                  0.00    136.10     53.34      0.00
  243                  8.46    136.10     52.91      0.00
  247                137.24    136.13     51.19      0.00
  249                  0.00    136.13     51.19    135.17
  251                 47.11    136.19     46.01      0.00
  253                106.31    136.71     43.64      0.00
  255                 78.76    136.82     47.59      0.00
  257                  0.00    149.86     57.57      0.00
  259                  0.00    149.32     53.87      0.00
  261                  0.00    147.37     63.86      0.00
  263                  0.00    147.15     63.76      0.00
  265                  0.00    146.78     63.60      0.00
  267                  0.00    144.71     53.60      0.00
  269                  0.00    145.41     63.00      0.00
  271                  0.00    145.04     60.25      0.00
  273                  0.00    138.22     56.42      0.00
  275                  0.00    137.36     55.18      0.00
  River           -13215.70    220.00      0.00      0.00  Reservoir
  Lake                 0.00    167.00      0.00      0.00  Reservoir
  1                 -933.66    147.69      6.84      0.00  Tank
  2                 -596.50    139.01      9.75      0.00  Tank
  3                 -201.36    160.45     13.63      0.00  Tank
   
   
  Link Results at 23:55:00 hrs:
  ----------------------------------------------
                       Flow  Velocity  Headloss
  Link                  gpm       fps   /1000ft
  ----------------------------------------------
  20                 201.36      0.01      0.00
  40                 933.66      0.04      0.00
  50                 596.50      0.02      0.00
  60               13215.70      9.37      9.00
  101                  0.00      0.00      0.00
  103                122.06      0.19      0.01
  105               -492.46      1.40      0.68
  107                -27.16      0.08      0.00
  109               -137.68      0.22      0.02
  111               -588.91      1.67      0.95
  112                442.48      1.26      0.56
  113               -256.44      0.73      0.20
  114                 75.73      0.48      0.15
  115               -133.71      0.85      0.44
  116               -219.73      0.62      0.15
  117                729.28      2.07      1.41
  119               -753.52      2.14      1.50
  120               1315.64      3.73      4.21
  121               1164.54      3.30      3.36
  122                396.69      2.53      3.30
  123              10160.33      4.61      1.84
  125              11134.45      5.05      2.18
  129                496.25      0.35      0.02
  131                183.59      0.13      0.00
  133                201.36      0.21      0.01
  135                350.51      0.25      0.01
  137                 83.36      0.13      0.01
  145                267.15      1.71      1.58
  147                255.67      1.63      1.46
  149               -370.70      2.37      2.91
  151               -358.61      2.29      2.73
  153                134.24      0.38      0.06
  155                188.12      0.53      0.11
  159               -204.79      0.58      0.13
  161               -257.58      1.64      1.48
  163               -137.61      0.39      0.06
  169                223.74      1.43      1.14
  171                401.71      1.14      0.47
  173               8099.53      3.68      1.21
  175               7998.54      3.63      1.18
  177               7917.97      3.59      1.16
  179               7594.55      3.45      1.07
  180                  5.07      0.01      0.00
  181                  5.07      0.01      0.00
  183               7330.00      3.33      1.01
  185                -28.39      0.18      0.03
  186                282.81      1.81      1.76
  187               6631.41      3.01      0.84
  189               5417.00      2.46      0.57
  191              -1137.70      0.81      0.11
  193              -1580.42      1.12      0.20
  195               -337.49      0.96      0.34
  197               -450.93      1.28      0.58
  199                482.74      1.37      0.66
  201                933.66      2.65      2.23
  202                602.48      3.85      7.15
  203                369.69      2.36      2.89
  204                602.48      1.71      0.99
  205                282.81      0.80      0.24
  207               -113.04      0.32      0.04
  209                288.74      1.84      1.83
  211                670.20      1.90      1.21
  213                 -5.93      0.02      0.00
  215               -178.83      0.51      0.10
  217               -353.77      1.00      0.37
  219               -292.61      0.83      0.26
  221                292.61      1.87      1.88
  223               -200.00      0.57      0.13
  225               -166.77      0.47      0.09
  229               5417.00      3.84      1.70
  231               5019.78      3.56      1.48
  233               4983.13      3.53      1.70
  235                164.54      0.47      0.09
  237                514.74      1.46      0.74
  238                453.92      1.29      0.59
  239                 74.50      0.21      0.02
  240                453.92      1.29      0.59
  241                453.92      1.29      0.59
  243                452.23      0.72      0.14
  245                423.99      0.68      0.13
  247                352.03      0.56      0.09
  249                172.26      0.27      0.02
  251                 80.57      0.17      0.01
  257                 44.46      0.13      0.01
  261                 44.78      0.29      0.06
  263                 32.14      0.09      0.00
  269                 11.33      0.03      0.00
  271                112.51      0.72      0.32
  273               -131.62      0.37      0.06
  275                -76.66      0.22      0.02
  277                  8.46      0.02      0.00
  281                -85.13      0.35      0.06
  283               -141.95      0.40      0.07
  285                 34.57      0.10      0.00
  287               -256.93      1.05      0.50
  289                596.50      2.44      2.37
  291                106.31      0.43      0.10
  293                154.50      0.99      0.57
  295               -107.38      0.30      0.04
  297                547.79      3.50      5.99
  299                263.54      1.68      1.55
  301                263.54      1.68      1.55
  303                284.25      1.81      1.78
  305                181.49      0.51      0.11
  307                465.74      1.32      0.62
  309                241.11      1.54      1.31
  311               -419.94      1.19      0.51
  313                564.97      1.60      0.88
  315              -1242.93      0.88      0.13
  317                124.83      0.80      0.39
  319                 39.71      0.11      0.01
  321               7571.11      3.44      1.07
  323                -50.34      0.14      0.01
  325                105.22      0.67      0.28
  329              13215.70      6.00      3.04
  330                  0.00      0.00      0.00
  333                 -0.00      0.00      0.00
  10                   0.00      0.00      0.00  Pump
  335              13215.70      0.00    -92.93  Pump
   
   
  Node Results at 24:00:00 hrs:
  --------------------------------------------------------
                     Demand      Head  Pressure  Chemical
  Node                  gpm        ft       psi      mg/L
  --------------------------------------------------------
  10                   0.00    148.03      0.45      0.00
  15                 492.24    139.10     46.41      0.00
  20                   0.00    160.45     13.63      0.00
  35                1801.91    147.91     58.67      0.00
  40                   0.00    147.58      6.80      0.00
  50                   0.00    138.81      9.67      0.00
  60                   0.00    209.13     90.62      0.00
  601                  0.00    303.27    131.41      0.00
  61                   0.00    303.27    131.41      0.00
  101                241.24    148.03     45.94      0.00
  103                169.16    148.00     45.50      0.00
  105                171.92    149.32     52.35      0.00
  107                 69.39    149.31     55.16      0.00
  109                293.88    148.00     55.33      0.00
  111                180.26    148.49     60.01      0.00
  113                 25.41    148.51     63.48      0.00
  115                 66.17    149.35     58.65      0.00
  117                149.49    152.50     60.18      0.00
  119                223.69    159.96     68.44      0.00
  120                  0.00    157.55     68.26      0.00
  121                 52.87    163.40     71.67      0.00
  123                  0.00    167.81     67.95      0.00
  125                 57.91    162.84     65.79      0.00
  127                 22.43    161.20     45.58      0.00
  129                  0.00    161.19     47.74      0.00
  131                 54.29    161.17     67.24      0.00
  139                  7.48    157.15     54.66      0.00
  141                 12.51    154.30     65.12      0.00
  143                  7.87    147.21     65.74      0.00
  145                 35.09    155.05     66.75      0.00
  147                 10.86    155.64     59.42      0.00
  149                 34.38    155.90     60.62      0.00
  151                183.49    158.48     54.15      0.00
  153                 56.10    158.56     40.02      0.00
  157                 65.77    157.47     62.56      0.00
  159                 52.48    154.05     64.15      0.00
  161                 20.07    151.73     64.01      0.00
  163                 11.96    151.26     63.37      0.00
  164                  0.00    151.26     63.37      0.00
  166                  3.30    151.26     66.41      0.00
  167                 18.49    149.34     66.88      0.00
  169                  0.00    149.34     66.88      0.00
  171                 49.96    148.22     65.96      0.00
  173                  0.00    148.20     65.95      0.00
  177                 73.88    147.91     60.62      0.00
  179                  0.00    147.90     60.62      0.00
  181                  0.00    147.91     60.62      0.00
  183                  0.00    147.91     59.32      0.00
  184                  0.00    146.62     56.60      0.00
  185                 32.58    147.26     56.87      0.00
  187                  0.00    148.05     58.73      0.00
  189                137.06    148.35     62.55      0.00
  191                104.01    148.39     53.46      0.00
  193                 90.56    148.48     56.54      0.00
  195                  0.00    148.55     57.65      0.00
  197                 21.64    148.41     54.34      0.00
  199                151.54    142.65     62.68      0.00
  201                 56.65    141.88     61.43      0.00
  203               4410.98    141.71     60.54      0.00
  204                  0.00    147.77     54.93      0.00
  205                 83.01    142.60     52.69      0.00
  206                  0.00    141.22     60.76      0.00
  207                 88.13    141.69     57.50      0.00
  208                  0.00    140.67     54.02      0.00
  209                  1.10    139.73     61.41      0.00
  211                 11.01    139.42     57.38      0.00
  213                 17.70    139.34     57.34      0.00
  215                117.08    139.16     57.27      0.00
  217                 30.76    139.14     57.69      0.00
  219                 52.48    139.13     58.55      0.00
  225                 28.96    139.14     56.82      0.00
  229                 81.51    138.91     55.64    104.45
  231                 20.93    138.91     58.02      0.00
  237                 19.82    138.92     54.13     87.15
  239                 56.65    138.82     54.52     86.37
  241                  0.00    138.82     54.52      0.00
  243                  5.51    138.82     54.08      0.00
  247                 89.38    138.80     52.34      0.00
  249                  0.00    138.80     52.34    135.39
  251                 30.68    138.79     47.14      0.00
  253                 69.24    138.73     44.51      0.00
  255                 51.30    138.78     48.43      0.00
  257                  0.00    154.45     59.56      0.00
  259                  0.00    154.02     55.90      0.00
  261                  0.00    152.45     66.06      0.00
  263                  0.00    152.29     65.99      0.00
  265                  0.00    149.95     64.97      0.00
  267                  0.00    148.48     55.24      0.00
  269                  0.00    148.72     64.44      0.00
  271                  0.00    148.00     61.53      0.00
  273                  0.00    142.60     58.32      0.00
  275                  0.00    141.87     57.14      0.00
  River           -13078.71    220.00      0.00      0.00  Reservoir
  Lake                 0.00    167.00      0.00      0.00  Reservoir
  1                  298.07    147.58      6.80      0.00  Tank
  2                  -58.54    138.81      9.67      0.00  Tank
  3                 2262.95    160.45     13.63      0.00  Tank
   
   
  Link Results at 24:00:00 hrs:
  ----------------------------------------------
                       Flow  Velocity  Headloss
  Link                  gpm       fps   /1000ft
  ----------------------------------------------
  20               -2262.95      0.09      0.00
  40                -298.07      0.01      0.00
  50                  58.54      0.00      0.00
  60               13078.71      9.28      8.83
  101                  0.00      0.00      0.00
  103                177.86      0.28      0.03
  105               -419.10      1.19      0.51
  107                 42.70      0.12      0.01
  109                  8.70      0.01      0.00
  111               -285.18      0.81      0.25
  112                513.96      1.46      0.74
  113                -42.74      0.12      0.01
  114                130.81      0.83      0.42
  115                -26.70      0.17      0.02
  116                 62.65      0.18      0.01
  117                633.72      1.80      1.09
  119               -737.63      2.09      1.44
  120               1153.62      3.27      3.30
  121               1034.76      2.94      2.70
  122                367.21      2.34      2.86
  123               9803.30      4.45      1.72
  125              13078.71      5.94      2.94
  129               2855.33      2.02      0.60
  131               2596.15      1.84      0.51
  133              -2262.95      2.31      0.96
  135                310.77      0.22      0.01
  137                 54.29      0.09      0.00
  145                256.47      1.64      1.47
  147                248.99      1.59      1.39
  149               -500.11      3.19      5.06
  151               -492.24      3.14      4.92
  153                263.63      0.75      0.21
  155                298.72      0.85      0.27
  159               -309.58      0.88      0.29
  161               -343.96      2.20      2.53
  163               -145.17      0.41      0.07
  169                201.27      1.28      0.94
  171                382.27      1.08      0.43
  173               8043.72      3.65      1.19
  175               7977.94      3.62      1.18
  177               7925.47      3.60      1.16
  179               7657.47      3.48      1.09
  180                  3.30      0.01      0.00
  181                  3.30      0.01      0.00
  183               7441.88      3.38      1.03
  185                -18.49      0.12      0.01
  186                362.38      2.31      2.79
  187               6827.50      3.10      0.88
  189               4848.33      2.20      0.47
  191              -1929.21      1.37      0.29
  193              -1801.91      1.28      0.26
  195                278.70      0.79      0.24
  197                204.82      0.58      0.13
  199                -93.25      0.26      0.03
  201               -298.07      0.85      0.27
  202                567.56      3.62      6.40
  203                237.75      1.52      1.28
  204                567.56      1.61      0.89
  205                362.38      1.03      0.39
  207                331.00      0.94      0.33
  209                158.64      1.01      0.60
  211                595.89      1.69      0.97
  213                203.74      0.58      0.13
  215                182.21      0.52      0.11
  217               -238.13      0.68      0.18
  219               -247.93      0.70      0.19
  221                247.93      1.58      1.38
  223                 69.62      0.20      0.02
  225                 91.26      0.26      0.03
  229               4848.33      3.44      1.39
  231               4548.56      3.23      1.23
  233               4410.98      3.13      1.35
  235                148.23      0.42      0.07
  237                518.80      1.47      0.75
  238                625.59      1.77      1.06
  239                194.91      0.55      0.12
  240                625.59      1.77      1.06
  241                625.59      1.77      1.06
  243                624.48      1.00      0.26
  245                332.96      0.53      0.08
  247                229.27      0.37      0.04
  249                112.19      0.18      0.01
  251                 52.48      0.11      0.01
  257                 28.96      0.08      0.00
  261                 85.99      0.55      0.19
  263                 20.93      0.06      0.00
  269                280.51      0.80      0.24
  271                 16.45      0.10      0.01
  273                244.23      0.69      0.19
  275                 73.67      0.21      0.02
  277                  5.51      0.02      0.00
  281                 68.16      0.28      0.04
  283                113.90      0.32      0.05
  285                -64.72      0.18      0.02
  287                 43.50      0.18      0.02
  289                 58.54      0.24      0.03
  291                 69.24      0.28      0.04
  293                -18.50      0.12      0.01
  295                 49.18      0.14      0.01
  297                486.07      3.10      4.80
  299                233.53      1.49      1.24
  301                233.53      1.49      1.24
  303                252.54      1.61      1.43
  305                147.64      0.42      0.07
  307                400.18      1.14      0.46
  309                200.33      1.28      0.93
  311                -18.11      0.05      0.00
  313                444.49      1.26      0.56
  315              -2080.61      1.48      0.34
  317                113.99      0.73      0.33
  319                 34.25      0.10      0.00
  321               7642.20      3.47      1.09
  323                 80.93      0.23      0.02
  325                151.40      0.97      0.55
  329              13078.71      5.94      2.98
  330                  0.00      0.00      0.00
  333                 -0.00      0.00      0.00
  10                   0.00      0.00      0.00  Pump
  335              13078.71      0.00    -94.14  Pump
   
  Analysis ended Wed May 06 18:10:40 2020
