  Page 1                                    Sat May 02 21:01:16 2020

  ******************************************************************
  *                           E P A N E T                          *
  *                   Hydraulic and Water Quality                  *
  *                   Analysis for Pipe Networks                   *
  *                         Version 2.00.12                        *
  ******************************************************************
  
  Analysis begun Sat May 02 21:01:16 2020

   
  Hydraulic Status:
  -----------------------------------------------------------------------
     0:00:00: Balanced after 6 trials
     0:00:00: Reservoir River is emptying
     0:00:00: Reservoir Lake is closed
     0:00:00: Tank 1 is filling at 13.10 ft
     0:00:00: Tank 2 is emptying at 23.50 ft
     0:00:00: Tank 3 is filling at 29.00 ft
   
     0:05:00: Balanced after 2 trials
   
     0:10:00: Balanced after 2 trials
   
     0:15:00: Balanced after 2 trials
   
     0:20:00: Balanced after 2 trials
   
     0:25:00: Balanced after 2 trials
   
     0:30:00: Balanced after 2 trials
   
     0:35:00: Balanced after 2 trials
   
     0:40:00: Balanced after 2 trials
   
     0:45:00: Balanced after 2 trials
   
     0:50:00: Balanced after 2 trials
   
     0:55:00: Balanced after 2 trials
   
     1:00:00: Pump 10 changed by timer control
     1:00:00: Balanced after 7 trials
     1:00:00: Reservoir Lake is emptying
     1:00:00: Pump 10 changed from closed to open
   
     1:05:00: Balanced after 2 trials
   
     1:10:00: Balanced after 2 trials
   
     1:15:00: Balanced after 2 trials
   
     1:20:00: Balanced after 2 trials
   
     1:25:00: Balanced after 2 trials
   
     1:30:00: Balanced after 2 trials
   
     1:35:00: Balanced after 2 trials
   
     1:40:00: Balanced after 2 trials
   
     1:45:00: Balanced after 2 trials
   
     1:50:00: Balanced after 1 trials
   
     1:55:00: Balanced after 1 trials
   
     2:00:00: Balanced after 2 trials
   
     2:05:00: Balanced after 1 trials
   
     2:10:00: Balanced after 1 trials
     2:10:00: Tank 2 is filling at 21.47 ft
   
     2:15:00: Balanced after 1 trials
   
     2:20:00: Balanced after 1 trials
   
     2:25:00: Balanced after 1 trials
   
     2:30:00: Balanced after 1 trials
   
     2:35:00: Balanced after 1 trials
   
     2:40:00: Balanced after 1 trials
   
     2:45:00: Balanced after 1 trials
   
     2:50:00: Balanced after 1 trials
   
     2:55:00: Balanced after 1 trials
   
     3:00:00: Balanced after 3 trials
   
     3:05:00: Balanced after 1 trials
   
     3:10:00: Balanced after 1 trials
   
     3:15:00: Balanced after 1 trials
   
     3:20:00: Balanced after 1 trials
   
     3:25:00: Balanced after 1 trials
   
     3:30:00: Balanced after 1 trials
   
     3:35:00: Balanced after 1 trials
   
     3:40:00: Balanced after 1 trials
   
     3:45:00: Balanced after 1 trials
   
     3:50:00: Balanced after 1 trials
   
     3:55:00: Balanced after 1 trials
   
     4:00:00: Balanced after 3 trials
   
     4:05:00: Balanced after 1 trials
   
     4:10:00: Balanced after 1 trials
   
     4:13:06: Pump 335 changed by Tank 1 control
     4:13:06: Pipe 330 changed by Tank 1 control
     4:13:06: Balanced after 4 trials
     4:13:06: Pipe 330 changed from closed to open
     4:13:06: Pump 335 changed from open to closed
   
     4:15:00: Balanced after 1 trials
   
     4:20:00: Balanced after 2 trials
   
     4:25:00: Balanced after 2 trials
   
     4:30:00: Balanced after 2 trials
   
     4:35:00: Balanced after 2 trials
   
     4:40:00: Balanced after 2 trials
   
     4:45:00: Balanced after 2 trials
   
     4:50:00: Balanced after 2 trials
   
     4:55:00: Balanced after 2 trials
   
     5:00:00: Balanced after 3 trials
     5:00:00: Tank 3 is emptying at 34.25 ft
   
     5:05:00: Balanced after 2 trials
   
     5:10:00: Balanced after 2 trials
   
     5:15:00: Balanced after 2 trials
   
     5:20:00: Balanced after 2 trials
   
     5:25:00: Balanced after 2 trials
   
     5:30:00: Balanced after 2 trials
   
     5:35:00: Balanced after 2 trials
   
     5:40:00: Balanced after 2 trials
     5:40:00: Tank 3 is filling at 34.23 ft
   
     5:45:00: Balanced after 2 trials
   
     5:50:00: Balanced after 2 trials
   
     5:55:00: Balanced after 2 trials
   
     6:00:00: Balanced after 3 trials
     6:00:00: Tank 1 is emptying at 20.51 ft
   
     6:05:00: Balanced after 2 trials
   
     6:10:00: Balanced after 1 trials
   
     6:15:00: Balanced after 1 trials
   
     6:20:00: Balanced after 1 trials
   
     6:25:00: Balanced after 1 trials
   
     6:30:00: Balanced after 1 trials
   
     6:35:00: Balanced after 1 trials
   
     6:40:00: Balanced after 1 trials
   
     6:45:00: Balanced after 1 trials
   
     6:50:00: Balanced after 1 trials
   
     6:55:00: Balanced after 1 trials
   
     7:00:00: Balanced after 4 trials
     7:00:00: Tank 1 is filling at 20.44 ft
   
     7:05:00: Balanced after 1 trials
   
     7:10:00: Balanced after 1 trials
   
     7:15:00: Balanced after 1 trials
   
     7:20:00: Balanced after 1 trials
   
     7:25:00: Balanced after 1 trials
   
     7:30:00: Balanced after 1 trials
   
     7:35:00: Balanced after 1 trials
   
     7:40:00: Balanced after 1 trials
   
     7:45:00: Balanced after 1 trials
   
     7:50:00: Balanced after 1 trials
   
     7:55:00: Balanced after 1 trials
   
     8:00:00: Balanced after 2 trials
   
     8:05:00: Balanced after 1 trials
   
     8:10:00: Balanced after 1 trials
   
     8:15:00: Balanced after 1 trials
   
     8:20:00: Balanced after 1 trials
   
     8:25:00: Balanced after 1 trials
   
     8:30:00: Balanced after 1 trials
   
     8:35:00: Balanced after 1 trials
   
     8:40:00: Balanced after 1 trials
   
     8:45:00: Balanced after 1 trials
   
     8:50:00: Balanced after 1 trials
   
     8:55:00: Balanced after 1 trials
   
     9:00:00: Balanced after 4 trials
     9:00:00: Tank 1 is emptying at 22.32 ft
     9:00:00: Tank 2 is emptying at 27.60 ft
     9:00:00: Tank 3 is emptying at 35.29 ft
   
     9:05:00: Balanced after 1 trials
   
     9:10:00: Balanced after 1 trials
   
     9:15:00: Balanced after 1 trials
   
     9:20:00: Balanced after 1 trials
   
     9:25:00: Balanced after 1 trials
   
     9:30:00: Balanced after 1 trials
   
     9:35:00: Balanced after 1 trials
   
     9:40:00: Balanced after 1 trials
   
     9:45:00: Balanced after 1 trials
   
     9:50:00: Balanced after 1 trials
   
     9:55:00: Balanced after 1 trials
   
    10:00:00: Balanced after 3 trials
   
    10:05:00: Balanced after 1 trials
   
    10:10:00: Balanced after 1 trials
   
    10:15:00: Balanced after 1 trials
   
    10:20:00: Balanced after 1 trials
   
    10:25:00: Balanced after 1 trials
   
    10:30:00: Balanced after 1 trials
   
    10:35:00: Balanced after 1 trials
   
    10:40:00: Balanced after 1 trials
   
    10:45:00: Balanced after 1 trials
   
    10:50:00: Balanced after 1 trials
   
    10:55:00: Balanced after 1 trials
   
    11:00:00: Balanced after 4 trials
    11:00:00: Tank 1 is filling at 21.39 ft
    11:00:00: Tank 2 is filling at 26.56 ft
   
    11:05:00: Balanced after 2 trials
   
    11:10:00: Balanced after 2 trials
   
    11:15:00: Balanced after 2 trials
   
    11:20:00: Balanced after 2 trials
   
    11:25:00: Balanced after 2 trials
   
    11:30:00: Balanced after 2 trials
   
    11:35:00: Balanced after 2 trials
   
    11:40:00: Balanced after 2 trials
   
    11:45:00: Balanced after 2 trials
   
    11:50:00: Balanced after 2 trials
   
    11:55:00: Balanced after 2 trials
   
    12:00:00: Balanced after 3 trials
    12:00:00: Tank 1 is emptying at 21.78 ft
    12:00:00: Tank 2 is emptying at 27.35 ft
   
    12:05:00: Balanced after 1 trials
   
    12:10:00: Balanced after 1 trials
   
    12:15:00: Balanced after 1 trials
   
    12:20:00: Balanced after 1 trials
   
    12:25:00: Balanced after 1 trials
   
    12:30:00: Balanced after 1 trials
   
    12:35:00: Balanced after 1 trials
   
    12:40:00: Balanced after 1 trials
   
    12:45:00: Balanced after 1 trials
   
    12:50:00: Balanced after 1 trials
   
    12:55:00: Balanced after 1 trials
   
    13:00:00: Balanced after 3 trials
    13:00:00: Tank 1 is filling at 21.63 ft
    13:00:00: Tank 2 is filling at 27.23 ft
   
    13:05:00: Balanced after 2 trials
   
    13:10:00: Balanced after 2 trials
   
    13:15:00: Balanced after 2 trials
   
    13:20:00: Balanced after 2 trials
   
    13:25:00: Balanced after 2 trials
   
    13:30:00: Balanced after 2 trials
   
    13:35:00: Balanced after 2 trials
   
    13:40:00: Balanced after 2 trials
   
    13:45:00: Balanced after 2 trials
   
    13:50:00: Balanced after 2 trials
   
    13:55:00: Balanced after 2 trials
   
    14:00:00: Balanced after 4 trials
    14:00:00: Tank 3 is filling at 33.93 ft
   
    14:05:00: Balanced after 2 trials
   
    14:10:00: Balanced after 2 trials
   
    14:15:00: Balanced after 2 trials
   
    14:20:00: Balanced after 2 trials
   
    14:25:00: Balanced after 2 trials
   
    14:30:00: Balanced after 2 trials
   
    14:35:00: Balanced after 2 trials
   
    14:40:00: Balanced after 2 trials
   
    14:45:00: Balanced after 2 trials
   
    14:50:00: Balanced after 2 trials
   
    14:55:00: Balanced after 2 trials
   
    15:00:00: Pump 10 changed by timer control
    15:00:00: Balanced after 5 trials
    15:00:00: Reservoir Lake is closed
    15:00:00: Tank 1 is emptying at 22.57 ft
    15:00:00: Tank 2 is emptying at 28.57 ft
    15:00:00: Tank 3 is emptying at 33.99 ft
    15:00:00: Pump 10 changed from open to closed
   
    15:05:00: Balanced after 1 trials
   
    15:10:00: Balanced after 1 trials
   
    15:15:00: Balanced after 1 trials
   
    15:20:00: Balanced after 1 trials
   
    15:25:00: Balanced after 1 trials
   
    15:30:00: Balanced after 1 trials
   
    15:35:00: Balanced after 1 trials
   
    15:40:00: Balanced after 1 trials
   
    15:45:00: Balanced after 1 trials
   
    15:50:00: Balanced after 1 trials
   
    15:55:00: Balanced after 1 trials
   
    16:00:00: Balanced after 4 trials
   
    16:05:00: Balanced after 2 trials
   
    16:10:00: Balanced after 2 trials
   
    16:15:00: Balanced after 2 trials
   
    16:20:00: Balanced after 2 trials
   
    16:25:00: Balanced after 2 trials
   
    16:30:00: Balanced after 2 trials
   
    16:35:00: Balanced after 2 trials
   
    16:40:00: Balanced after 2 trials
   
    16:45:00: Balanced after 1 trials
   
    16:50:00: Balanced after 1 trials
   
    16:55:00: Balanced after 1 trials
   
    17:00:00: Balanced after 3 trials
    17:00:00: Tank 2 is filling at 27.35 ft
   
    17:05:00: Balanced after 1 trials
   
    17:10:00: Balanced after 1 trials
   
    17:15:00: Balanced after 1 trials
   
    17:20:00: Balanced after 1 trials
   
    17:25:00: Balanced after 1 trials
   
    17:30:00: Balanced after 1 trials
   
    17:35:00: Balanced after 1 trials
   
    17:40:00: Balanced after 1 trials
   
    17:45:00: Balanced after 1 trials
    17:45:00: Tank 2 is emptying at 27.40 ft
   
    17:50:00: Balanced after 1 trials
   
    17:55:00: Balanced after 1 trials
   
    18:00:00: Balanced after 3 trials
    18:00:00: Tank 2 is filling at 27.39 ft
   
    18:05:00: Balanced after 2 trials
   
    18:10:00: Balanced after 2 trials
   
    18:15:00: Balanced after 2 trials
   
    18:20:00: Balanced after 2 trials
   
    18:25:00: Balanced after 2 trials
   
    18:30:00: Balanced after 2 trials
   
    18:35:00: Balanced after 2 trials
   
    18:40:00: Balanced after 2 trials
   
    18:45:00: Balanced after 2 trials
   
    18:50:00: Balanced after 2 trials
   
    18:55:00: Balanced after 1 trials
   
    19:00:00: Balanced after 3 trials
   
    19:05:00: Balanced after 2 trials
   
    19:10:00: Balanced after 2 trials
   
    19:15:00: Balanced after 2 trials
   
    19:20:00: Balanced after 2 trials
   
    19:25:00: Balanced after 2 trials
   
    19:30:00: Balanced after 2 trials
   
    19:35:00: Balanced after 2 trials
   
    19:40:00: Balanced after 2 trials
   
    19:45:00: Balanced after 2 trials
   
    19:50:00: Balanced after 2 trials
   
    19:55:00: Balanced after 2 trials
   
    20:00:00: Balanced after 3 trials
    20:00:00: Tank 2 is emptying at 27.91 ft
   
    20:05:00: Balanced after 1 trials
   
    20:10:00: Balanced after 1 trials
   
    20:15:00: Balanced after 1 trials
   
    20:20:00: Balanced after 1 trials
   
    20:25:00: Balanced after 1 trials
   
    20:30:00: Balanced after 1 trials
   
    20:35:00: Balanced after 1 trials
   
    20:40:00: Balanced after 1 trials
   
    20:45:00: Balanced after 1 trials
   
    20:50:00: Balanced after 1 trials
   
    20:55:00: Balanced after 1 trials
   
    21:00:00: Balanced after 3 trials
   
    21:05:00: Balanced after 2 trials
   
    21:10:00: Balanced after 2 trials
   
    21:15:00: Balanced after 2 trials
   
    21:20:00: Balanced after 2 trials
   
    21:25:00: Balanced after 2 trials
   
    21:30:00: Balanced after 2 trials
   
    21:35:00: Balanced after 2 trials
   
    21:40:00: Balanced after 2 trials
   
    21:45:00: Balanced after 2 trials
   
    21:50:00: Balanced after 2 trials
   
    21:54:47: Pump 335 changed by Tank 1 control
    21:54:47: Pipe 330 changed by Tank 1 control
    21:54:47: Balanced after 5 trials
    21:54:47: Tank 3 is filling at 29.57 ft
    21:54:47: Pipe 330 changed from open to closed
    21:54:47: Pump 335 changed from closed to open
   
    21:55:00: Balanced after 1 trials
   
    22:00:00: Balanced after 3 trials
   
    22:05:00: Balanced after 2 trials
   
    22:10:00: Balanced after 2 trials
   
    22:15:00: Balanced after 2 trials
   
    22:20:00: Balanced after 2 trials
   
    22:25:00: Balanced after 2 trials
   
    22:30:00: Balanced after 2 trials
   
    22:35:00: Balanced after 2 trials
   
    22:40:00: Balanced after 2 trials
   
    22:45:00: Balanced after 2 trials
   
    22:50:00: Balanced after 2 trials
   
    22:55:00: Balanced after 2 trials
   
    23:00:00: Balanced after 4 trials
    23:00:00: Tank 3 is emptying at 30.27 ft
   
    23:05:00: Balanced after 2 trials
   
    23:10:00: Balanced after 2 trials
   
    23:15:00: Balanced after 2 trials
   
    23:20:00: Balanced after 2 trials
   
    23:25:00: Balanced after 2 trials
   
    23:30:00: Balanced after 2 trials
   
    23:35:00: Balanced after 2 trials
   
    23:40:00: Balanced after 2 trials
   
    23:45:00: Balanced after 2 trials
   
    23:50:00: Balanced after 2 trials
   
    23:55:00: Balanced after 2 trials
   
    24:00:00: Balanced after 5 trials
    24:00:00: Tank 1 is filling at 14.74 ft
    24:00:00: Tank 3 is filling at 30.15 ft
   
   
  Node Results at 0:00:00 hrs:
  --------------------------------------------------------
                     Demand      Head  Pressure  Chemical
  Node                  gpm        ft       psi      mg/L
  --------------------------------------------------------
  10                   0.00    145.60     -0.61      0.00
  15                 674.64    120.77     38.46      0.00
  20                   0.00    158.00     12.57      0.00
  35                1615.39    145.42     57.60      0.00
  40                   0.00    145.00      5.68      0.00
  50                   0.00    140.00     10.18      0.00
  60                   0.00    209.01     90.56      0.00
  601                  0.00    302.42    131.04      0.00
  61                   0.00    302.42    131.04      0.00
  101                237.44    145.60     44.89      0.00
  103                166.50    145.56     44.44      0.00
  105                169.21    146.87     51.29      0.00
  107                 68.30    146.86     54.10      0.00
  109                289.25    145.56     54.28      0.00
  111                177.42    146.03     58.94      0.00
  113                 25.01    146.04     62.41      0.00
  115                 65.13    146.89     57.58      0.00
  117                147.14    150.02     59.11      0.00
  119                220.16    157.42     67.34      0.00
  120                  0.00    155.03     67.18      0.00
  121                 52.04    160.91     70.59      0.00
  123                  0.00    165.37     66.89      0.00
  125                 57.00    160.34     64.71      0.00
  127                 22.08    158.71     44.50      0.00
  129                  0.00    158.69     46.66      0.00
  131                 53.44    158.68     66.15      0.00
  139                  7.36    152.40     52.60      0.00
  141                 12.31    147.91     62.36      0.00
  143                  7.75    135.31     60.58      0.00
  145                 34.54    149.37     64.29      0.00
  147                 10.69    150.44     57.17      0.00
  149                 33.84    150.89     58.45      0.00
  151                180.60    155.23     52.75      0.00
  153                 55.21    155.34     38.62      0.00
  157                 64.74    154.94     61.46      0.00
  159                 51.65    151.52     63.06      0.00
  161                 19.75    149.20     62.92      0.00
  163                 11.77    148.73     62.28      0.00
  164                  0.00    148.73     62.28      0.00
  166                  3.25    148.73     65.31      0.00
  167                 18.20    146.82     65.78      0.00
  169                  0.00    146.82     65.78      0.00
  171                 49.17    145.70     64.87      0.00
  173                  0.00    145.68     64.85      0.00
  177                 72.71    145.42     59.54      0.00
  179                  0.00    145.41     59.54      0.00
  181                  0.00    145.43     59.55      0.00
  183                  0.00    145.42     58.24      0.00
  184                  0.00    144.05     55.49      0.00
  185                 32.06    144.73     55.78      0.00
  187                  0.00    145.55     57.65      0.00
  189                134.90    145.86     61.47      0.00
  191                102.38    145.91     52.39      0.00
  193                 89.14    146.00     55.46      0.00
  195                  0.00    146.07     56.58      0.00
  197                 21.30    145.94     53.27      0.00
  199                149.15    139.82     61.45      0.00
  201                 55.76    138.98     60.18      0.00
  203               4927.60    138.78     59.27      0.00
  204                  0.00    145.26     53.84      0.00
  205                 81.70    139.81     51.48      0.00
  206                  0.00    138.97     59.78      0.00
  207                 86.74    139.08     56.36      0.00
  208                  0.00    138.86     53.23      0.00
  209                  1.09    138.65     60.94      0.00
  211                 10.84    138.58     57.02      0.00
  213                 17.42    138.53     56.99      0.00
  215                115.24    138.36     56.92      0.00
  217                 30.27    138.34     57.34      0.00
  219                 51.65    138.33     58.21      0.00
  225                 28.50    138.34     56.47      0.00
  229                 80.22    138.47     55.45      0.00
  231                 20.60    138.47     57.83      0.00
  237                 19.51    138.59     53.98      0.00
  239                 55.76    138.60     54.42      0.00
  241                  0.00    138.60     54.42      0.00
  243                  5.43    138.60     53.99      0.00
  247                 87.97    138.62     52.26      0.00
  249                  0.00    138.62     52.26      0.00
  251                 30.20    138.65     47.08      0.00
  253                 68.15    138.91     44.59      0.00
  255                 50.49    138.96     48.51      0.00
  257                  0.00    151.96     58.48      0.00
  259                  0.00    151.53     54.83      0.00
  261                  0.00    149.98     64.99      0.00
  263                  0.00    149.82     64.92      0.00
  265                  0.00    147.43     63.88      0.00
  267                  0.00    146.00     54.16      0.00
  269                  0.00    146.21     63.35      0.00
  271                  0.00    145.51     60.45      0.00
  273                  0.00    139.81     57.11      0.00
  275                  0.00    139.02     55.91      0.00
  River           -13161.20    220.00      0.00      0.00  Reservoir
  Lake                 0.00    167.00      0.00      0.00  Reservoir
  1                  342.08    145.00      5.68      0.00  Tank
  2                 -399.13    140.00     10.18      0.00  Tank
  3                 2190.49    158.00     12.57      0.00  Tank
   
   
  Link Results at 0:00:00 hrs:
  ----------------------------------------------
                       Flow  Velocity  Headloss
  Link                  gpm       fps   /1000ft
  ----------------------------------------------
  20               -2190.49      0.09      0.00
  40                -342.08      0.01      0.00
  50                 399.13      0.02      0.00
  60               13161.20      9.33      8.93
  101                  0.00      0.00      0.00
  103                179.52      0.29      0.03
  105               -416.96      1.18      0.50
  107                 45.06      0.13      0.01
  109                 13.02      0.02      0.00
  111               -276.23      0.78      0.23
  112                516.03      1.46      0.74
  113                -33.87      0.10      0.00
  114                131.70      0.84      0.43
  115                -23.24      0.15      0.02
  116                 72.82      0.21      0.02
  117                631.23      1.79      1.08
  119               -736.11      2.09      1.44
  120               1146.62      3.25      3.27
  121               1030.43      2.92      2.68
  122                367.85      2.35      2.87
  123               9873.56      4.48      1.75
  125              13161.20      5.97      2.97
  129               2867.75      2.03      0.61
  131               2591.66      1.84      0.51
  133              -2190.49      2.24      0.90
  135                379.09      0.27      0.01
  137                 53.44      0.09      0.00
  145                325.65      2.08      2.29
  147                318.29      2.03      2.19
  149               -682.39      4.36      9.00
  151               -674.64      4.31      8.81
  153                376.41      1.07      0.41
  155                410.95      1.17      0.49
  159               -421.64      1.20      0.51
  161               -455.47      2.91      4.26
  163               -163.88      0.46      0.09
  169                219.09      1.40      1.10
  171                472.19      1.34      0.63
  173               8034.58      3.65      1.19
  175               7969.85      3.62      1.17
  177               7918.20      3.59      1.16
  179               7652.33      3.47      1.09
  180                  3.25      0.01      0.00
  181                  3.25      0.01      0.00
  183               7439.96      3.38      1.03
  185                -18.20      0.12      0.01
  186                370.52      2.36      2.90
  187               6834.85      3.10      0.88
  189               4991.03      2.27      0.49
  191              -1794.64      1.27      0.26
  193              -1615.39      1.15      0.21
  195                329.71      0.94      0.33
  197                257.00      0.73      0.20
  199                -85.08      0.24      0.03
  201               -342.08      0.97      0.35
  202                584.13      3.73      6.75
  203                245.67      1.57      1.36
  204                584.13      1.66      0.94
  205                370.52      1.05      0.40
  207                330.75      0.94      0.33
  209                160.60      1.03      0.62
  211                586.91      1.66      0.94
  213                209.92      0.60      0.14
  215                189.81      0.54      0.12
  217               -237.34      0.67      0.18
  219               -246.12      0.70      0.19
  221                246.12      1.57      1.36
  223                 74.95      0.21      0.02
  225                 96.25      0.27      0.03
  229               4991.03      3.54      1.46
  231               4762.43      3.38      1.34
  233               4927.60      3.49      1.66
  235                 79.45      0.23      0.02
  237                463.58      1.32      0.61
  238                274.22      0.78      0.23
  239               -102.63      0.29      0.04
  240                274.22      0.78      0.23
  241                274.22      0.78      0.23
  243                273.13      0.44      0.06
  245                271.57      0.43      0.06
  247                225.66      0.36      0.04
  249                110.43      0.18      0.01
  251                 51.65      0.11      0.00
  257                 28.50      0.08      0.00
  261                 28.48      0.18      0.03
  263                 20.60      0.06      0.00
  269                 -9.28      0.03      0.00
  271                 72.34      0.46      0.14
  273               -101.13      0.29      0.04
  275                -55.42      0.16      0.01
  277                  5.43      0.02      0.00
  281                -60.84      0.25      0.03
  283               -101.48      0.29      0.04
  285                 26.49      0.08      0.00
  287               -175.31      0.72      0.24
  289                399.13      1.63      1.12
  291                 68.15      0.28      0.04
  293                105.18      0.67      0.28
  295                -74.98      0.21      0.02
  297                484.04      3.09      4.76
  299                232.56      1.48      1.23
  301                232.56      1.48      1.23
  303                251.48      1.61      1.42
  305                147.18      0.42      0.07
  307                398.66      1.13      0.46
  309                197.35      1.26      0.90
  311                 -7.54      0.02      0.00
  313                436.45      1.24      0.55
  315              -1945.10      1.38      0.30
  317                118.30      0.76      0.35
  319                -38.85      0.11      0.01
  321               7637.30      3.47      1.08
  323               -220.93      0.63      0.15
  325                150.46      0.96      0.55
  329              13161.20      5.97      3.01
  330                  0.00      0.00      0.00
  333                 -0.00      0.00      0.00
  10                   0.00      0.00      0.00  Pump
  335              13161.20      0.00    -93.41  Pump
   
   
  Node Results at 0:05:00 hrs:
  --------------------------------------------------------
                     Demand      Head  Pressure  Chemical
  Node                  gpm        ft       psi      mg/L
  --------------------------------------------------------
  10                   0.00    145.63     -0.59      0.00
  15                 674.64    120.82     38.49      0.00
  20                   0.00    158.07     12.60      0.00
  35                1615.39    145.45     57.61      0.00
  40                   0.00    145.04      5.69      0.00
  50                   0.00    139.86     10.12      0.00
  60                   0.00    209.01     90.56      0.00
  601                  0.00    302.44    131.05      0.00
  61                   0.00    302.44    131.05      0.00
  101                237.44    145.63     44.90      0.00
  103                166.50    145.59     44.45      0.00
  105                169.21    146.90     51.30      0.00
  107                 68.30    146.89     54.12      0.00
  109                289.25    145.59     54.29      0.00
  111                177.42    146.06     58.95      0.00
  113                 25.01    146.07     62.42      0.00
  115                 65.13    146.93     57.60      0.00
  117                147.14    150.06     59.13      0.00
  119                220.16    157.46     67.36      0.00
  120                  0.00    155.08     67.20      0.00
  121                 52.04    160.96     70.61      0.00
  123                  0.00    165.42     66.91      0.00
  125                 57.00    160.40     64.73      0.00
  127                 22.08    158.77     44.53      0.00
  129                  0.00    158.76     46.69      0.00
  131                 53.44    158.74     66.18      0.00
  139                  7.36    152.46     52.63      0.00
  141                 12.31    147.96     62.38      0.00
  143                  7.75    135.36     60.60      0.00
  145                 34.54    149.42     64.31      0.00
  147                 10.69    150.49     57.19      0.00
  149                 33.84    150.94     58.47      0.00
  151                180.60    155.28     52.77      0.00
  153                 55.21    155.39     38.64      0.00
  157                 64.74    154.98     61.48      0.00
  159                 51.65    151.56     63.07      0.00
  161                 19.75    149.24     62.93      0.00
  163                 11.77    148.77     62.29      0.00
  164                  0.00    148.77     62.29      0.00
  166                  3.25    148.77     65.33      0.00
  167                 18.20    146.85     65.80      0.00
  169                  0.00    146.85     65.80      0.00
  171                 49.17    145.73     64.88      0.00
  173                  0.00    145.71     64.87      0.00
  177                 72.71    145.45     59.56      0.00
  179                  0.00    145.44     59.55      0.00
  181                  0.00    145.46     59.56      0.00
  183                  0.00    145.45     58.26      0.00
  184                  0.00    144.08     55.50      0.00
  185                 32.06    144.75     55.79      0.00
  187                  0.00    145.58     57.66      0.00
  189                134.90    145.89     61.48      0.00
  191                102.38    145.94     52.40      0.00
  193                 89.14    146.03     55.48      0.00
  195                  0.00    146.10     56.59      0.00
  197                 21.30    145.97     53.28      0.00
  199                149.15    139.83     61.45      0.00
  201                 55.76    138.98     60.18      0.00
  203               4927.60    138.78     59.27      0.00
  204                  0.00    145.29     53.85      0.00
  205                 81.70    139.82     51.48      0.00
  206                  0.00    138.96     59.78      0.00
  207                 86.74    139.07     56.36      0.00
  208                  0.00    138.83     53.22      0.00
  209                  1.09    138.61     60.93      0.00
  211                 10.84    138.54     57.00      0.00
  213                 17.42    138.48     56.97      0.00
  215                115.24    138.31     56.90      0.00
  217                 30.27    138.29     57.32      0.00
  219                 51.65    138.28     58.19      0.00
  225                 28.50    138.29     56.45      0.00
  229                 80.22    138.43     55.43      0.00
  231                 20.60    138.42     57.81      0.00
  237                 19.51    138.54     53.96      0.00
  239                 55.76    138.55     54.40      0.00
  241                  0.00    138.55     54.40      0.00
  243                  5.43    138.55     53.97      0.00
  247                 87.97    138.57     52.24      0.00
  249                  0.00    138.57     52.24      0.00
  251                 30.20    138.59     47.05      0.00
  253                 68.15    138.83     44.56      0.00
  255                 50.49    138.88     48.48      0.00
  257                  0.00    152.00     58.50      0.00
  259                  0.00    151.57     54.84      0.00
  261                  0.00    150.02     65.00      0.00
  263                  0.00    149.85     64.93      0.00
  265                  0.00    147.46     63.90      0.00
  267                  0.00    146.04     54.18      0.00
  269                  0.00    146.24     63.37      0.00
  271                  0.00    145.54     60.46      0.00
  273                  0.00    139.81     57.11      0.00
  275                  0.00    139.03     55.91      0.00
  River           -13159.53    220.00      0.00      0.00  Reservoir
  Lake                 0.00    167.00      0.00      0.00  Reservoir
  1                  337.55    145.04      5.69      0.00  Tank
  2                 -387.37    139.86     10.12      0.00  Tank
  3                 2181.58    158.07     12.60      0.00  Tank
   
   
  Link Results at 0:05:00 hrs:
  ----------------------------------------------
                       Flow  Velocity  Headloss
  Link                  gpm       fps   /1000ft
  ----------------------------------------------
  20               -2181.58      0.09      0.00
  40                -337.55      0.01      0.00
  50                 387.37      0.02      0.00
  60               13159.53      9.33      8.93
  101                  0.00      0.00      0.00
  103                179.76      0.29      0.03
  105               -417.19      1.18      0.50
  107                 45.22      0.13      0.01
  109                 13.26      0.02      0.00
  111               -275.99      0.78      0.23
  112                516.57      1.47      0.75
  113                -33.44      0.09      0.00
  114                131.86      0.84      0.43
  115                -23.08      0.15      0.02
  116                 73.41      0.21      0.02
  117                631.62      1.79      1.08
  119               -736.64      2.09      1.44
  120               1147.30      3.25      3.27
  121               1031.05      2.92      2.68
  122                368.09      2.35      2.87
  123               9880.28      4.48      1.75
  125              13159.53      5.97      2.97
  129               2859.12      2.03      0.61
  131               2582.91      1.83      0.50
  133              -2181.58      2.23      0.89
  135                379.25      0.27      0.01
  137                 53.44      0.09      0.00
  145                325.82      2.08      2.29
  147                318.45      2.03      2.19
  149               -682.39      4.36      9.00
  151               -674.64      4.31      8.81
  153                376.25      1.07      0.41
  155                410.79      1.17      0.49
  159               -421.47      1.20      0.51
  161               -455.31      2.91      4.25
  163               -164.00      0.47      0.09
  169                219.21      1.40      1.10
  171                471.91      1.34      0.63
  173               8040.90      3.65      1.19
  175               7976.16      3.62      1.18
  177               7924.51      3.60      1.16
  179               7658.53      3.48      1.09
  180                  3.25      0.01      0.00
  181                  3.25      0.01      0.00
  183               7446.16      3.38      1.04
  185                -18.20      0.12      0.01
  186                371.27      2.37      2.92
  187               6841.02      3.11      0.88
  189               5001.38      2.27      0.50
  191              -1790.47      1.27      0.25
  193              -1615.39      1.15      0.21
  195                325.65      0.92      0.32
  197                252.94      0.72      0.20
  199                -84.61      0.24      0.03
  201               -337.55      0.96      0.34
  202                585.55      3.74      6.78
  203                246.34      1.57      1.36
  204                585.55      1.66      0.94
  205                371.27      1.05      0.40
  207                330.95      0.94      0.33
  209                160.86      1.03      0.62
  211                586.93      1.67      0.94
  213                210.42      0.60      0.14
  215                190.35      0.54      0.12
  217               -237.50      0.67      0.18
  219               -246.23      0.70      0.19
  221                246.23      1.57      1.36
  223                 75.29      0.21      0.02
  225                 96.59      0.27      0.03
  229               5001.38      3.55      1.47
  231               4770.01      3.38      1.35
  233               4927.60      3.49      1.66
  235                 82.21      0.23      0.02
  237                467.41      1.33      0.62
  238                285.98      0.81      0.25
  239                -94.69      0.27      0.03
  240                285.98      0.81      0.25
  241                285.98      0.81      0.25
  243                284.89      0.45      0.06
  245                271.72      0.43      0.06
  247                225.66      0.36      0.04
  249                110.43      0.18      0.01
  251                 51.65      0.11      0.00
  257                 28.50      0.08      0.00
  261                 28.63      0.18      0.03
  263                 20.60      0.06      0.00
  269                  2.34      0.01      0.00
  271                 72.20      0.46      0.14
  273                -89.37      0.25      0.03
  275                -51.01      0.14      0.01
  277                  5.43      0.02      0.00
  281                -56.44      0.23      0.03
  283                -94.12      0.27      0.03
  285                 23.45      0.07      0.00
  287               -167.86      0.69      0.23
  289                387.37      1.58      1.06
  291                 68.15      0.28      0.04
  293                100.87      0.64      0.26
  295                -70.67      0.20      0.02
  297                484.34      3.09      4.77
  299                232.70      1.49      1.23
  301                232.70      1.49      1.23
  303                251.64      1.61      1.42
  305                147.28      0.42      0.07
  307                398.92      1.13      0.46
  309                197.35      1.26      0.90
  311                 -7.00      0.02      0.00
  313                436.36      1.24      0.55
  315              -1941.04      1.38      0.30
  317                118.65      0.76      0.35
  319                -36.44      0.10      0.01
  321               7643.51      3.47      1.09
  323               -213.35      0.61      0.15
  325                150.57      0.96      0.55
  329              13159.53      5.97      3.01
  330                  0.00      0.00      0.00
  333                 -0.00      0.00      0.00
  10                   0.00      0.00      0.00  Pump
  335              13159.53      0.00    -93.43  Pump
   
   
  Node Results at 0:10:00 hrs:
  --------------------------------------------------------
                     Demand      Head  Pressure  Chemical
  Node                  gpm        ft       psi      mg/L
  --------------------------------------------------------
  10                   0.00    145.66     -0.58      0.00
  15                 674.64    120.88     38.51      0.00
  20                   0.00    158.14     12.63      0.00
  35                1615.39    145.48     57.62      0.00
  40                   0.00    145.08      5.71      0.00
  50                   0.00    139.73     10.07      0.00
  60                   0.00    209.01     90.56      0.00
  601                  0.00    302.45    131.05      0.00
  61                   0.00    302.45    131.05      0.00
  101                237.44    145.66     44.92      0.00
  103                166.50    145.63     44.47      0.00
  105                169.21    146.94     51.32      0.00
  107                 68.30    146.93     54.13      0.00
  109                289.25    145.63     54.30      0.00
  111                177.42    146.09     58.97      0.00
  113                 25.01    146.10     62.44      0.00
  115                 65.13    146.96     57.61      0.00
  117                147.14    150.10     59.15      0.00
  119                220.16    157.51     67.38      0.00
  120                  0.00    155.12     67.21      0.00
  121                 52.04    161.01     70.63      0.00
  123                  0.00    165.47     66.93      0.00
  125                 57.00    160.45     64.76      0.00
  127                 22.08    158.83     44.56      0.00
  129                  0.00    158.82     46.72      0.00
  131                 53.44    158.80     66.21      0.00
  139                  7.36    152.52     52.65      0.00
  141                 12.31    148.02     62.40      0.00
  143                  7.75    135.42     60.63      0.00
  145                 34.54    149.47     64.33      0.00
  147                 10.69    150.54     57.21      0.00
  149                 33.84    150.99     58.49      0.00
  151                180.60    155.33     52.79      0.00
  153                 55.21    155.44     38.67      0.00
  157                 64.74    155.02     61.50      0.00
  159                 51.65    151.60     63.09      0.00
  161                 19.75    149.27     62.95      0.00
  163                 11.77    148.80     62.31      0.00
  164                  0.00    148.80     62.31      0.00
  166                  3.25    148.80     65.34      0.00
  167                 18.20    146.88     65.81      0.00
  169                  0.00    146.88     65.81      0.00
  171                 49.17    145.76     64.89      0.00
  173                  0.00    145.73     64.88      0.00
  177                 72.71    145.48     59.57      0.00
  179                  0.00    145.47     59.57      0.00
  181                  0.00    145.49     59.57      0.00
  183                  0.00    145.48     58.27      0.00
  184                  0.00    144.10     55.51      0.00
  185                 32.06    144.78     55.80      0.00
  187                  0.00    145.61     57.68      0.00
  189                134.90    145.92     61.49      0.00
  191                102.38    145.97     52.42      0.00
  193                 89.14    146.07     55.49      0.00
  195                  0.00    146.13     56.60      0.00
  197                 21.30    146.00     53.30      0.00
  199                149.15    139.84     61.46      0.00
  201                 55.76    138.99     60.18      0.00
  203               4927.60    138.79     59.27      0.00
  204                  0.00    145.32     53.87      0.00
  205                 81.70    139.82     51.48      0.00
  206                  0.00    138.95     59.77      0.00
  207                 86.74    139.07     56.36      0.00
  208                  0.00    138.81     53.21      0.00
  209                  1.09    138.57     60.91      0.00
  211                 10.84    138.49     56.98      0.00
  213                 17.42    138.44     56.95      0.00
  215                115.24    138.27     56.88      0.00
  217                 30.27    138.25     57.30      0.00
  219                 51.65    138.24     58.17      0.00
  225                 28.50    138.24     56.43      0.00
  229                 80.22    138.38     55.41      0.00
  231                 20.60    138.38     57.79      0.00
  237                 19.51    138.49     53.94      0.00
  239                 55.76    138.50     54.38      0.00
  241                  0.00    138.50     54.38      0.00
  243                  5.43    138.50     53.95      0.00
  247                 87.97    138.51     52.22      0.00
  249                  0.00    138.51     52.22      0.00
  251                 30.20    138.54     47.03      0.00
  253                 68.15    138.76     44.52      0.00
  255                 50.49    138.80     48.44      0.00
  257                  0.00    152.04     58.51      0.00
  259                  0.00    151.61     54.86      0.00
  261                  0.00    150.05     65.02      0.00
  263                  0.00    149.89     64.95      0.00
  265                  0.00    147.50     63.91      0.00
  267                  0.00    146.07     54.19      0.00
  269                  0.00    146.27     63.38      0.00
  271                  0.00    145.57     60.47      0.00
  273                  0.00    139.82     57.12      0.00
  275                  0.00    139.03     55.91      0.00
  River           -13157.86    220.00      0.00      0.00  Reservoir
  Lake                 0.00    167.00      0.00      0.00  Reservoir
  1                  333.20    145.08      5.71      0.00  Tank
  2                 -375.82    139.73     10.07      0.00  Tank
  3                 2172.72    158.14     12.63      0.00  Tank
   
   
  Link Results at 0:10:00 hrs:
  ----------------------------------------------
                       Flow  Velocity  Headloss
  Link                  gpm       fps   /1000ft
  ----------------------------------------------
  20               -2172.72      0.09      0.00
  40                -333.20      0.01      0.00
  50                 375.82      0.02      0.00
  60               13157.86      9.33      8.93
  101                  0.00      0.00      0.00
  103                179.99      0.29      0.03
  105               -417.42      1.18      0.50
  107                 45.37      0.13      0.01
  109                 13.49      0.02      0.00
  111               -275.76      0.78      0.23
  112                517.10      1.47      0.75
  113                -33.01      0.09      0.00
  114                132.01      0.84      0.43
  115                -22.93      0.15      0.02
  116                 73.99      0.21      0.02
  117                632.01      1.79      1.08
  119               -737.16      2.09      1.44
  120               1147.98      3.26      3.27
  121               1031.68      2.93      2.69
  122                368.33      2.35      2.87
  123               9886.96      4.49      1.75
  125              13157.86      5.97      2.97
  129               2850.54      2.02      0.60
  131               2574.21      1.83      0.50
  133              -2172.72      2.22      0.89
  135                379.42      0.27      0.01
  137                 53.44      0.09      0.00
  145                325.98      2.08      2.29
  147                318.62      2.03      2.20
  149               -682.39      4.36      9.00
  151               -674.64      4.31      8.81
  153                376.09      1.07      0.41
  155                410.62      1.16      0.49
  159               -421.31      1.20      0.51
  161               -455.15      2.91      4.25
  163               -164.12      0.47      0.09
  169                219.33      1.40      1.10
  171                471.63      1.34      0.63
  173               8047.18      3.65      1.20
  175               7982.44      3.62      1.18
  177               7930.79      3.60      1.16
  179               7664.70      3.48      1.09
  180                  3.25      0.01      0.00
  181                  3.25      0.01      0.00
  183               7452.31      3.38      1.04
  185                -18.20      0.12      0.01
  186                372.01      2.37      2.93
  187               6847.15      3.11      0.89
  189               5011.54      2.27      0.50
  191              -1786.44      1.27      0.25
  193              -1615.39      1.15      0.21
  195                321.74      0.91      0.31
  197                249.02      0.71      0.19
  199                -84.17      0.24      0.03
  201               -333.20      0.95      0.33
  202                586.94      3.75      6.81
  203                246.99      1.58      1.37
  204                586.94      1.67      0.94
  205                372.01      1.06      0.41
  207                331.16      0.94      0.33
  209                161.10      1.03      0.62
  211                586.96      1.67      0.94
  213                210.91      0.60      0.14
  215                190.89      0.54      0.12
  217               -237.66      0.67      0.18
  219               -246.34      0.70      0.19
  221                246.34      1.57      1.36
  223                 75.62      0.21      0.02
  225                 96.92      0.27      0.03
  229               5011.54      3.55      1.47
  231               4777.59      3.39      1.35
  233               4927.60      3.49      1.66
  235                 84.80      0.24      0.03
  237                471.04      1.34      0.63
  238                297.53      0.84      0.27
  239                -86.78      0.25      0.03
  240                297.53      0.84      0.27
  241                297.53      0.84      0.27
  243                296.44      0.47      0.07
  245                271.98      0.43      0.06
  247                225.66      0.36      0.04
  249                110.43      0.18      0.01
  251                 51.65      0.11      0.00
  257                 28.50      0.08      0.00
  261                 28.89      0.18      0.03
  263                 20.60      0.06      0.00
  269                 13.63      0.04      0.00
  271                 71.94      0.46      0.14
  273                -77.82      0.22      0.02
  275                -46.69      0.13      0.01
  277                  5.43      0.02      0.00
  281                -52.12      0.21      0.03
  283                -86.90      0.25      0.03
  285                 20.46      0.06      0.00
  287               -160.55      0.66      0.21
  289                375.82      1.54      1.01
  291                 68.15      0.28      0.04
  293                 96.63      0.62      0.24
  295                -66.43      0.19      0.02
  297                484.63      3.09      4.78
  299                232.84      1.49      1.23
  301                232.84      1.49      1.23
  303                251.79      1.61      1.42
  305                147.38      0.42      0.07
  307                399.17      1.13      0.46
  309                197.36      1.26      0.90
  311                 -6.47      0.02      0.00
  313                436.27      1.24      0.55
  315              -1937.13      1.37      0.29
  317                119.00      0.76      0.35
  319                -34.20      0.10      0.00
  321               7649.67      3.47      1.09
  323               -205.78      0.58      0.14
  325                150.69      0.96      0.55
  329              13157.86      5.97      3.01
  330                  0.00      0.00      0.00
  333                 -0.00      0.00      0.00
  10                   0.00      0.00      0.00  Pump
  335              13157.86      0.00    -93.44  Pump
   
   
  Node Results at 0:15:00 hrs:
  --------------------------------------------------------
                     Demand      Head  Pressure  Chemical
  Node                  gpm        ft       psi      mg/L
  --------------------------------------------------------
  10                   0.00    145.70     -0.57      0.00
  15                 674.64    120.93     38.53      0.00
  20                   0.00    158.21     12.66      0.00
  35                1615.39    145.51     57.63      0.00
  40                   0.00    145.12      5.73      0.00
  50                   0.00    139.60     10.01      0.00
  60                   0.00    209.01     90.57      0.00
  601                  0.00    302.47    131.06      0.00
  61                   0.00    302.47    131.06      0.00
  101                237.44    145.70     44.93      0.00
  103                166.50    145.66     44.48      0.00
  105                169.21    146.97     51.33      0.00
  107                 68.30    146.96     54.15      0.00
  109                289.25    145.66     54.32      0.00
  111                177.42    146.12     58.98      0.00
  113                 25.01    146.13     62.45      0.00
  115                 65.13    146.99     57.63      0.00
  117                147.14    150.14     59.16      0.00
  119                220.16    157.56     67.40      0.00
  120                  0.00    155.17     67.23      0.00
  121                 52.04    161.06     70.65      0.00
  123                  0.00    165.52     66.95      0.00
  125                 57.00    160.50     64.78      0.00
  127                 22.08    158.90     44.59      0.00
  129                  0.00    158.88     46.75      0.00
  131                 53.44    158.87     66.24      0.00
  139                  7.36    152.58     52.68      0.00
  141                 12.31    148.07     62.43      0.00
  143                  7.75    135.47     60.65      0.00
  145                 34.54    149.52     64.36      0.00
  147                 10.69    150.60     57.24      0.00
  149                 33.84    151.05     58.52      0.00
  151                180.60    155.38     52.81      0.00
  153                 55.21    155.48     38.69      0.00
  157                 64.74    155.07     61.51      0.00
  159                 51.65    151.64     63.10      0.00
  161                 19.75    149.31     62.96      0.00
  163                 11.77    148.84     62.32      0.00
  164                  0.00    148.84     62.32      0.00
  166                  3.25    148.84     65.36      0.00
  167                 18.20    146.91     65.82      0.00
  169                  0.00    146.91     65.82      0.00
  171                 49.17    145.79     64.90      0.00
  173                  0.00    145.76     64.89      0.00
  177                 72.71    145.51     59.58      0.00
  179                  0.00    145.50     59.58      0.00
  181                  0.00    145.52     59.59      0.00
  183                  0.00    145.51     58.28      0.00
  184                  0.00    144.12     55.52      0.00
  185                 32.06    144.81     55.81      0.00
  187                  0.00    145.64     57.69      0.00
  189                134.90    145.95     61.51      0.00
  191                102.38    146.01     52.43      0.00
  193                 89.14    146.10     55.50      0.00
  195                  0.00    146.17     56.62      0.00
  197                 21.30    146.03     53.31      0.00
  199                149.15    139.84     61.46      0.00
  201                 55.76    138.99     60.18      0.00
  203               4927.60    138.79     59.27      0.00
  204                  0.00    145.35     53.88      0.00
  205                 81.70    139.83     51.49      0.00
  206                  0.00    138.93     59.77      0.00
  207                 86.74    139.06     56.36      0.00
  208                  0.00    138.79     53.20      0.00
  209                  1.09    138.53     60.89      0.00
  211                 10.84    138.45     56.96      0.00
  213                 17.42    138.39     56.93      0.00
  215                115.24    138.22     56.86      0.00
  217                 30.27    138.20     57.28      0.00
  219                 51.65    138.19     58.15      0.00
  225                 28.50    138.20     56.41      0.00
  229                 80.22    138.33     55.39      0.00
  231                 20.60    138.33     57.77      0.00
  237                 19.51    138.44     53.92      0.00
  239                 55.76    138.45     54.36      0.00
  241                  0.00    138.45     54.36      0.00
  243                  5.43    138.45     53.92      0.00
  247                 87.97    138.46     52.19      0.00
  249                  0.00    138.46     52.19      0.00
  251                 30.20    138.48     47.00      0.00
  253                 68.15    138.68     44.49      0.00
  255                 50.49    138.73     48.41      0.00
  257                  0.00    152.08     58.53      0.00
  259                  0.00    151.65     54.88      0.00
  261                  0.00    150.09     65.03      0.00
  263                  0.00    149.93     64.96      0.00
  265                  0.00    147.53     63.92      0.00
  267                  0.00    146.10     54.20      0.00
  269                  0.00    146.30     63.39      0.00
  271                  0.00    145.60     60.49      0.00
  273                  0.00    139.82     57.12      0.00
  275                  0.00    139.03     55.91      0.00
  River           -13156.19    220.00      0.00      0.00  Reservoir
  Lake                 0.00    167.00      0.00      0.00  Reservoir
  1                  329.05    145.12      5.73      0.00  Tank
  2                 -364.55    139.60     10.01      0.00  Tank
  3                 2163.93    158.21     12.66      0.00  Tank
   
   
  Link Results at 0:15:00 hrs:
  ----------------------------------------------
                       Flow  Velocity  Headloss
  Link                  gpm       fps   /1000ft
  ----------------------------------------------
  20               -2163.93      0.09      0.00
  40                -329.05      0.01      0.00
  50                 364.55      0.02      0.00
  60               13156.19      9.33      8.93
  101                  0.00      0.00      0.00
  103                180.22      0.29      0.03
  105               -417.65      1.18      0.50
  107                 45.53      0.13      0.01
  109                 13.72      0.02      0.00
  111               -275.53      0.78      0.23
  112                517.63      1.47      0.75
  113                -32.58      0.09      0.00
  114                132.16      0.84      0.43
  115                -22.77      0.15      0.02
  116                 74.57      0.21      0.02
  117                632.40      1.79      1.08
  119               -737.68      2.09      1.44
  120               1148.66      3.26      3.28
  121               1032.29      2.93      2.69
  122                368.56      2.35      2.88
  123               9893.57      4.49      1.75
  125              13156.19      5.97      2.97
  129               2842.03      2.02      0.60
  131               2565.58      1.82      0.50
  133              -2163.93      2.21      0.88
  135                379.58      0.27      0.01
  137                 53.44      0.09      0.00
  145                326.14      2.08      2.29
  147                318.78      2.03      2.20
  149               -682.39      4.36      9.00
  151               -674.64      4.31      8.81
  153                375.92      1.07      0.41
  155                410.46      1.16      0.49
  159               -421.15      1.19      0.51
  161               -454.99      2.90      4.25
  163               -164.23      0.47      0.09
  169                219.44      1.40      1.10
  171                471.36      1.34      0.63
  173               8053.39      3.66      1.20
  175               7988.66      3.63      1.18
  177               7937.01      3.60      1.17
  179               7670.80      3.48      1.09
  180                  3.25      0.01      0.00
  181                  3.25      0.01      0.00
  183               7458.41      3.39      1.04
  185                -18.20      0.12      0.01
  186                372.73      2.38      2.94
  187               6853.22      3.11      0.89
  189               5021.46      2.28      0.50
  191              -1782.58      1.26      0.25
  193              -1615.39      1.15      0.21
  195                318.00      0.90      0.30
  197                245.28      0.70      0.19
  199                -83.77      0.24      0.03
  201               -329.05      0.93      0.32
  202                588.29      3.75      6.84
  203                247.62      1.58      1.38
  204                588.29      1.67      0.95
  205                372.73      1.06      0.41
  207                331.38      0.94      0.33
  209                161.34      1.03      0.62
  211                586.99      1.67      0.94
  213                211.39      0.60      0.14
  215                191.43      0.54      0.12
  217               -237.82      0.67      0.18
  219               -246.45      0.70      0.19
  221                246.45      1.57      1.37
  223                 75.95      0.22      0.02
  225                 97.25      0.28      0.03
  229               5021.46      3.56      1.48
  231               4785.10      3.39      1.35
  233               4927.60      3.49      1.66
  235                 87.20      0.25      0.03
  237                474.45      1.35      0.64
  238                308.80      0.88      0.29
  239                -78.92      0.22      0.02
  240                308.80      0.88      0.29
  241                308.80      0.88      0.29
  243                307.71      0.49      0.07
  245                272.50      0.43      0.06
  247                225.66      0.36      0.04
  249                110.43      0.18      0.01
  251                 51.65      0.11      0.00
  257                 28.50      0.08      0.00
  261                 29.41      0.19      0.03
  263                 20.60      0.06      0.00
  269                 24.37      0.07      0.00
  271                 71.42      0.46      0.14
  273                -66.55      0.19      0.02
  275                -42.47      0.12      0.01
  277                  5.43      0.02      0.00
  281                -47.90      0.20      0.02
  283                -79.85      0.23      0.02
  285                 17.55      0.05      0.00
  287               -153.42      0.63      0.19
  289                364.55      1.49      0.95
  291                 68.15      0.28      0.04
  293                 92.49      0.59      0.22
  295                -62.29      0.18      0.01
  297                484.92      3.10      4.78
  299                232.98      1.49      1.23
  301                232.98      1.49      1.23
  303                251.94      1.61      1.42
  305                147.48      0.42      0.07
  307                399.42      1.13      0.46
  309                197.37      1.26      0.90
  311                 -5.93      0.02      0.00
  313                436.19      1.24      0.55
  315              -1933.39      1.37      0.29
  317                119.34      0.76      0.36
  319                -32.13      0.09      0.00
  321               7655.78      3.47      1.09
  323               -198.26      0.56      0.13
  325                150.80      0.96      0.55
  329              13156.19      5.97      3.01
  330                  0.00      0.00      0.00
  333                 -0.00      0.00      0.00
  10                   0.00      0.00      0.00  Pump
  335              13156.19      0.00    -93.46  Pump
   
   
  Node Results at 0:20:00 hrs:
  --------------------------------------------------------
                     Demand      Head  Pressure  Chemical
  Node                  gpm        ft       psi      mg/L
  --------------------------------------------------------
  10                   0.00    145.73     -0.55      0.00
  15                 674.64    120.98     38.56      0.00
  20                   0.00    158.28     12.69      0.00
  35                1615.39    145.54     57.65      0.00
  40                   0.00    145.16      5.74      0.00
  50                   0.00    139.48      9.96      0.00
  60                   0.00    209.02     90.57      0.00
  601                  0.00    302.49    131.07      0.00
  61                   0.00    302.49    131.07      0.00
  101                237.44    145.73     44.95      0.00
  103                166.50    145.69     44.50      0.00
  105                169.21    147.01     51.35      0.00
  107                 68.30    147.00     54.16      0.00
  109                289.25    145.69     54.33      0.00
  111                177.42    146.16     59.00      0.00
  113                 25.01    146.16     62.47      0.00
  115                 65.13    147.03     57.64      0.00
  117                147.14    150.18     59.18      0.00
  119                220.16    157.60     67.42      0.00
  120                  0.00    155.21     67.25      0.00
  121                 52.04    161.11     70.68      0.00
  123                  0.00    165.57     66.97      0.00
  125                 57.00    160.56     64.80      0.00
  127                 22.08    158.96     44.61      0.00
  129                  0.00    158.95     46.77      0.00
  131                 53.44    158.93     66.26      0.00
  139                  7.36    152.64     52.70      0.00
  141                 12.31    148.12     62.45      0.00
  143                  7.75    135.52     60.67      0.00
  145                 34.54    149.58     64.38      0.00
  147                 10.69    150.65     57.26      0.00
  149                 33.84    151.10     58.54      0.00
  151                180.60    155.43     52.83      0.00
  153                 55.21    155.53     38.71      0.00
  157                 64.74    155.11     61.53      0.00
  159                 51.65    151.67     63.12      0.00
  161                 19.75    149.34     62.98      0.00
  163                 11.77    148.87     62.34      0.00
  164                  0.00    148.87     62.34      0.00
  166                  3.25    148.87     65.37      0.00
  167                 18.20    146.94     65.84      0.00
  169                  0.00    146.95     65.84      0.00
  171                 49.17    145.82     64.92      0.00
  173                  0.00    145.79     64.90      0.00
  177                 72.71    145.54     59.60      0.00
  179                  0.00    145.53     59.59      0.00
  181                  0.00    145.55     59.60      0.00
  183                  0.00    145.54     58.30      0.00
  184                  0.00    144.15     55.53      0.00
  185                 32.06    144.83     55.82      0.00
  187                  0.00    145.67     57.70      0.00
  189                134.90    145.98     61.52      0.00
  191                102.38    146.04     52.45      0.00
  193                 89.14    146.13     55.52      0.00
  195                  0.00    146.20     56.63      0.00
  197                 21.30    146.06     53.32      0.00
  199                149.15    139.85     61.46      0.00
  201                 55.76    139.00     60.18      0.00
  203               4927.60    138.80     59.27      0.00
  204                  0.00    145.38     53.89      0.00
  205                 81.70    139.83     51.49      0.00
  206                  0.00    138.92     59.76      0.00
  207                 86.74    139.06     56.35      0.00
  208                  0.00    138.76     53.19      0.00
  209                  1.09    138.49     60.88      0.00
  211                 10.84    138.40     56.94      0.00
  213                 17.42    138.35     56.91      0.00
  215                115.24    138.18     56.84      0.00
  217                 30.27    138.16     57.26      0.00
  219                 51.65    138.15     58.13      0.00
  225                 28.50    138.15     56.40      0.00
  229                 80.22    138.28     55.37      0.00
  231                 20.60    138.28     57.75      0.00
  237                 19.51    138.39     53.90      0.00
  239                 55.76    138.40     54.33      0.00
  241                  0.00    138.40     54.33      0.00
  243                  5.43    138.40     53.90      0.00
  247                 87.97    138.41     52.17      0.00
  249                  0.00    138.41     52.17      0.00
  251                 30.20    138.42     46.98      0.00
  253                 68.15    138.60     44.46      0.00
  255                 50.49    138.65     48.38      0.00
  257                  0.00    152.12     58.55      0.00
  259                  0.00    151.69     54.90      0.00
  261                  0.00    150.13     65.05      0.00
  263                  0.00    149.97     64.98      0.00
  265                  0.00    147.56     63.94      0.00
  267                  0.00    146.13     54.22      0.00
  269                  0.00    146.34     63.41      0.00
  271                  0.00    145.62     60.50      0.00
  273                  0.00    139.83     57.12      0.00
  275                  0.00    139.03     55.91      0.00
  River           -13154.53    220.00      0.00      0.00  Reservoir
  Lake                 0.00    167.00      0.00      0.00  Reservoir
  1                  325.09    145.16      5.74      0.00  Tank
  2                 -353.54    139.48      9.96      0.00  Tank
  3                 2155.20    158.28     12.69      0.00  Tank
   
   
  Link Results at 0:20:00 hrs:
  ----------------------------------------------
                       Flow  Velocity  Headloss
  Link                  gpm       fps   /1000ft
  ----------------------------------------------
  20               -2155.20      0.09      0.00
  40                -325.09      0.01      0.00
  50                 353.54      0.01      0.00
  60               13154.53      9.33      8.92
  101                  0.00      0.00      0.00
  103                180.44      0.29      0.03
  105               -417.88      1.19      0.50
  107                 45.69      0.13      0.01
  109                 13.94      0.02      0.00
  111               -275.31      0.78      0.23
  112                518.15      1.47      0.75
  113                -32.16      0.09      0.00
  114                132.31      0.84      0.43
  115                -22.61      0.14      0.02
  116                 75.14      0.21      0.02
  117                632.79      1.80      1.09
  119               -738.19      2.09      1.44
  120               1149.32      3.26      3.28
  121               1032.91      2.93      2.69
  122                368.79      2.35      2.88
  123               9900.12      4.49      1.75
  125              13154.53      5.97      2.97
  129               2833.57      2.01      0.60
  131               2557.02      1.81      0.49
  133              -2155.20      2.20      0.87
  135                379.74      0.27      0.01
  137                 53.44      0.09      0.00
  145                326.30      2.08      2.30
  147                318.94      2.04      2.20
  149               -682.39      4.36      9.00
  151               -674.64      4.31      8.81
  153                375.76      1.07      0.41
  155                410.30      1.16      0.49
  159               -420.99      1.19      0.51
  161               -454.83      2.90      4.25
  163               -164.35      0.47      0.09
  169                219.56      1.40      1.10
  171                471.08      1.34      0.63
  173               8059.56      3.66      1.20
  175               7994.82      3.63      1.18
  177               7943.17      3.61      1.17
  179               7676.85      3.48      1.10
  180                  3.25      0.01      0.00
  181                  3.25      0.01      0.00
  183               7464.46      3.39      1.04
  185                -18.20      0.12      0.01
  186                373.44      2.38      2.95
  187               6859.22      3.11      0.89
  189               5031.16      2.28      0.50
  191              -1778.89      1.26      0.25
  193              -1615.39      1.15      0.21
  195                314.42      0.89      0.30
  197                241.70      0.69      0.18
  199                -83.39      0.24      0.03
  201               -325.09      0.92      0.32
  202                589.60      3.76      6.87
  203                248.23      1.58      1.38
  204                589.60      1.67      0.95
  205                373.44      1.06      0.41
  207                331.62      0.94      0.33
  209                161.57      1.03      0.62
  211                587.03      1.67      0.95
  213                211.87      0.60      0.14
  215                191.98      0.54      0.12
  217               -237.97      0.68      0.18
  219               -246.56      0.70      0.19
  221                246.56      1.57      1.37
  223                 76.27      0.22      0.02
  225                 97.57      0.28      0.03
  229               5031.16      3.57      1.49
  231               4792.58      3.40      1.36
  233               4927.60      3.49      1.66
  235                 89.43      0.25      0.03
  237                477.66      1.36      0.65
  238                319.81      0.91      0.31
  239                -71.11      0.20      0.02
  240                319.81      0.91      0.31
  241                319.81      0.91      0.31
  243                318.73      0.51      0.08
  245                273.22      0.44      0.06
  247                225.66      0.36      0.04
  249                110.43      0.18      0.01
  251                 51.65      0.11      0.00
  257                 28.50      0.08      0.00
  261                 30.13      0.19      0.03
  263                 20.60      0.06      0.00
  269                 34.67      0.10      0.01
  271                 70.69      0.45      0.14
  273                -55.54      0.16      0.01
  275                -38.34      0.11      0.01
  277                  5.43      0.02      0.00
  281                -43.77      0.18      0.02
  283                -72.95      0.21      0.02
  285                 14.71      0.04      0.00
  287               -146.45      0.60      0.18
  289                353.54      1.44      0.90
  291                 68.15      0.28      0.04
  293                 88.45      0.56      0.20
  295                -58.25      0.17      0.01
  297                485.21      3.10      4.79
  299                233.12      1.49      1.23
  301                233.12      1.49      1.23
  303                252.09      1.61      1.42
  305                147.57      0.42      0.07
  307                399.66      1.13      0.46
  309                197.38      1.26      0.90
  311                 -5.40      0.02      0.00
  313                436.11      1.24      0.55
  315              -1929.80      1.37      0.29
  317                119.67      0.76      0.36
  319                -30.24      0.09      0.00
  321               7661.83      3.48      1.09
  323               -190.78      0.54      0.12
  325                150.92      0.96      0.55
  329              13154.53      5.97      3.01
  330                  0.00      0.00      0.00
  333                 -0.00      0.00      0.00
  10                   0.00      0.00      0.00  Pump
  335              13154.53      0.00    -93.47  Pump
   
   
  Node Results at 0:25:00 hrs:
  --------------------------------------------------------
                     Demand      Head  Pressure  Chemical
  Node                  gpm        ft       psi      mg/L
  --------------------------------------------------------
  10                   0.00    145.76     -0.54      0.00
  15                 674.64    121.04     38.58      0.00
  20                   0.00    158.34     12.71      0.00
  35                1615.39    145.57     57.66      0.00
  40                   0.00    145.20      5.76      0.00
  50                   0.00    139.36      9.91      0.00
  60                   0.00    209.02     90.57      0.00
  601                  0.00    302.51    131.08      0.00
  61                   0.00    302.51    131.08      0.00
  101                237.44    145.76     44.96      0.00
  103                166.50    145.73     44.51      0.00
  105                169.21    147.04     51.36      0.00
  107                 68.30    147.03     54.18      0.00
  109                289.25    145.72     54.35      0.00
  111                177.42    146.19     59.01      0.00
  113                 25.01    146.20     62.48      0.00
  115                 65.13    147.06     57.66      0.00
  117                147.14    150.21     59.19      0.00
  119                220.16    157.65     67.44      0.00
  120                  0.00    155.25     67.27      0.00
  121                 52.04    161.16     70.70      0.00
  123                  0.00    165.62     67.00      0.00
  125                 57.00    160.61     64.83      0.00
  127                 22.08    159.02     44.64      0.00
  129                  0.00    159.01     46.80      0.00
  131                 53.44    158.99     66.29      0.00
  139                  7.36    152.69     52.73      0.00
  141                 12.31    148.18     62.47      0.00
  143                  7.75    135.58     60.70      0.00
  145                 34.54    149.63     64.40      0.00
  147                 10.69    150.70     57.28      0.00
  149                 33.84    151.15     58.56      0.00
  151                180.60    155.48     52.85      0.00
  153                 55.21    155.58     38.73      0.00
  157                 64.74    155.15     61.55      0.00
  159                 51.65    151.71     63.14      0.00
  161                 19.75    149.37     62.99      0.00
  163                 11.77    148.90     62.35      0.00
  164                  0.00    148.90     62.35      0.00
  166                  3.25    148.90     65.39      0.00
  167                 18.20    146.98     65.85      0.00
  169                  0.00    146.98     65.85      0.00
  171                 49.17    145.85     64.93      0.00
  173                  0.00    145.82     64.92      0.00
  177                 72.71    145.57     59.61      0.00
  179                  0.00    145.56     59.61      0.00
  181                  0.00    145.58     59.61      0.00
  183                  0.00    145.57     58.31      0.00
  184                  0.00    144.17     55.54      0.00
  185                 32.06    144.86     55.84      0.00
  187                  0.00    145.70     57.72      0.00
  189                134.90    146.01     61.53      0.00
  191                102.38    146.07     52.46      0.00
  193                 89.14    146.16     55.53      0.00
  195                  0.00    146.23     56.65      0.00
  197                 21.30    146.09     53.34      0.00
  199                149.15    139.86     61.47      0.00
  201                 55.76    139.00     60.19      0.00
  203               4927.60    138.80     59.28      0.00
  204                  0.00    145.41     53.90      0.00
[...]
  219                 86.36    132.37     55.62      0.00
  225                 47.65    132.38     53.89      0.00
  229                134.14    132.78     52.98     66.73
  231                 34.44    132.77     55.36      0.00
  237                 32.62    133.10     51.61      0.00
  239                 93.23    133.21     52.09      0.00
  241                  0.00    133.22     52.09      0.00
  243                  9.07    133.21     51.66      0.00
  247                147.09    133.29     49.95      0.00
  249                  0.00    133.29     49.95      0.00
  251                 50.49    133.41     44.81      0.00
  253                113.95    134.42     42.65      0.00
  255                 84.42    134.54     46.60      0.00
  257                  0.00    147.46     56.53      0.00
  259                  0.00    146.86     52.80      0.00
  261                  0.00    144.71     62.70      0.00
  263                  0.00    144.47     62.60      0.00
  265                  0.00    144.27     62.51      0.00
  267                  0.00    141.98     52.42      0.00
  269                  0.00    142.78     61.86      0.00
  271                  0.00    142.40     59.10      0.00
  273                  0.00    134.79     54.94      0.00
  275                  0.00    133.84     53.66      0.00
  River           -13255.32    220.00      0.00      0.00  Reservoir
  Lake                 0.00    167.00      0.00      0.00  Reservoir
  1                -1218.65    146.78      6.45      0.00  Tank
  2                 -765.17    138.02      9.32      0.00  Tank
  3                 -418.23    159.16     13.07      0.00  Tank
   
   
  Link Results at 23:55:00 hrs:
  ----------------------------------------------
                       Flow  Velocity  Headloss
  Link                  gpm       fps   /1000ft
  ----------------------------------------------
  20                 418.23      0.02      0.00
  40                1218.65      0.05      0.00
  50                 765.17      0.03      0.00
  60               13255.32      9.40      9.05
  101                  0.00      0.00      0.00
  103                124.54      0.20      0.01
  105               -521.53      1.48      0.76
  107                -32.87      0.09      0.00
  109               -153.85      0.25      0.02
  111               -637.47      1.81      1.10
  112                459.68      1.30      0.60
  113               -282.14      0.80      0.24
  114                 73.20      0.47      0.14
  115               -147.06      0.94      0.52
  116               -250.76      0.71      0.20
  117                771.59      2.19      1.57
  119               -788.83      2.24      1.63
  120               1389.64      3.94      4.66
  121               1228.47      3.48      3.71
  122                416.80      2.66      3.61
  123              10627.96      4.82      2.00
  125              11435.62      5.19      2.29
  129                303.86      0.22      0.01
  131                -23.23      0.02      0.00
  133                418.23      0.43      0.04
  135                358.09      0.25      0.01
  137                 89.35      0.14      0.01
  145                268.75      1.72      1.60
  147                256.43      1.64      1.47
  149               -345.64      2.21      2.55
  151               -332.68      2.12      2.38
  153                109.79      0.31      0.04
  155                167.54      0.48      0.09
  159               -185.41      0.53      0.11
  161               -241.98      1.54      1.32
  163               -139.47      0.40      0.07
  169                231.78      1.48      1.22
  171                404.48      1.15      0.47
  173               8465.73      3.84      1.31
  175               8357.49      3.79      1.28
  177               8271.13      3.75      1.26
  179               7928.68      3.60      1.16
  180                  5.43      0.01      0.00
  181                  5.43      0.01      0.00
  183               7648.92      3.47      1.09
  185                -30.43      0.19      0.03
  186                289.26      1.85      1.84
  187               6915.95      3.14      0.90
  189               5745.56      2.61      0.64
  191              -1088.17      0.77      0.10
  193              -1737.62      1.23      0.24
  195               -542.98      1.54      0.82
  197               -664.55      1.89      1.19
  199                554.10      1.57      0.85
  201               1218.65      3.46      3.66
  202                636.18      4.06      7.90
  203                400.52      2.56      3.36
  204                636.18      1.80      1.10
  205                289.26      0.82      0.25
  207               -153.57      0.44      0.08
  209                316.32      2.02      2.17
  211                702.54      1.99      1.32
  213                -27.06      0.08      0.00
  215               -207.76      0.59      0.14
  217               -372.03      1.06      0.41
  219               -309.44      0.88      0.29
  221                309.44      1.98      2.08
  223               -227.92      0.65      0.16
  225               -192.31      0.55      0.12
  229               5745.56      4.07      1.90
  231               5332.14      3.78      1.65
  233               5396.83      3.83      1.97
  235                164.05      0.47      0.09
  237                532.03      1.51      0.79
  238                360.67      1.02      0.38
  239                -26.33      0.07      0.00
  240                360.67      1.02      0.38
  241                360.67      1.02      0.38
  243                358.85      0.57      0.09
  245                446.33      0.71      0.14
  247                377.31      0.60      0.10
  249                184.63      0.29      0.03
  251                 86.36      0.18      0.01
  257                 47.65      0.14      0.01
  261                 39.89      0.25      0.05
  263                 34.44      0.10      0.00
  269               -105.60      0.30      0.04
  271                128.69      0.82      0.41
  273               -266.92      0.76      0.22
  275               -129.30      0.37      0.06
  277                  9.07      0.03      0.00
  281               -138.37      0.57      0.16
  283               -230.85      0.65      0.17
  285                 69.62      0.20      0.02
  287               -355.08      1.45      0.91
  289                765.17      3.13      3.75
  291                113.95      0.47      0.11
  293                211.73      1.35      1.03
  295               -161.24      0.46      0.09
  297                577.97      3.69      6.62
  299                278.11      1.78      1.71
  301                278.11      1.78      1.71
  303                299.86      1.91      1.96
  305                193.62      0.55      0.12
  307                493.48      1.40      0.69
  309                254.64      1.63      1.45
  311               -462.40      1.31      0.61
  313                596.07      1.69      0.97
  315              -1194.64      0.85      0.12
  317                131.60      0.84      0.43
  319                 32.45      0.09      0.00
  321               7903.56      3.59      1.16
  323               -157.93      0.45      0.08
  325                106.47      0.68      0.29
  329              13255.32      6.02      3.05
  330                  0.00      0.00      0.00
  333                 -0.00      0.00      0.00
  10                   0.00      0.00      0.00  Pump
  335              13255.32      0.00    -92.58  Pump
   
   
  Node Results at 24:00:00 hrs:
  --------------------------------------------------------
                     Demand      Head  Pressure  Chemical
  Node                  gpm        ft       psi      mg/L
  --------------------------------------------------------
  10                   0.00    146.77     -0.10      0.00
  15                 674.64    121.90     38.95      0.00
  20                   0.00    159.15     13.06      0.00
  35                1615.39    146.66     58.13      0.00
  40                   0.00    146.64      6.39      0.00
  50                   0.00    137.75      9.21      0.00
  60                   0.00    209.06     90.59      0.00
  601                  0.00    302.80    131.20      0.00
  61                   0.00    302.80    131.20      0.00
  101                237.44    146.77     45.40      0.00
  103                166.50    146.74     44.95      0.00
  105                169.21    148.04     51.80      0.00
  107                 68.30    148.03     54.61      0.00
  109                289.25    146.74     54.79      0.00
  111                177.42    147.21     59.45      0.00
  113                 25.01    147.22     62.92      0.00
  115                 65.13    148.07     58.09      0.00
  117                147.14    151.18     59.61      0.00
  119                220.16    158.55     67.83      0.00
  120                  0.00    156.17     67.67      0.00
  121                 52.04    162.02     71.07      0.00
  123                  0.00    166.46     67.36      0.00
  125                 57.00    161.46     65.20      0.00
  127                 22.08    159.84     45.00      0.00
  129                  0.00    159.83     47.16      0.00
  131                 53.44    159.81     66.65      0.00
  139                  7.36    153.54     53.10      0.00
  141                 12.31    149.04     62.85      0.00
  143                  7.75    136.44     61.07      0.00
  145                 34.54    150.50     64.78      0.00
  147                 10.69    151.57     57.66      0.00
  149                 33.84    152.02     58.94      0.00
  151                180.60    156.36     53.24      0.00
  153                 55.21    156.46     39.11      0.00
  157                 64.74    156.08     61.95      0.00
  159                 51.65    152.67     63.55      0.00
  161                 19.75    150.36     63.42      0.00
  163                 11.77    149.90     62.78      0.00
  164                  0.00    149.90     62.78      0.00
  166                  3.25    149.90     65.82      0.00
  167                 18.20    147.99     66.29      0.00
  169                  0.00    147.99     66.29      0.00
  171                 49.17    146.87     65.37      0.00
  173                  0.00    146.85     65.36      0.00
  177                 72.71    146.66     60.08      0.00
  179                  0.00    146.66     60.08      0.00
  181                  0.00    146.66     60.08      0.00
  183                  0.00    146.66     58.78      0.00
  184                  0.00    145.12     55.95      0.00
  185                 32.06    145.86     56.27      0.00
  187                  0.00    146.72     58.16      0.00
  189                134.90    147.06     61.99      0.00
  191                102.38    147.09     52.90      0.00
  193                 89.14    147.19     55.98      0.00
  195                  0.00    147.25     57.09      0.00
  197                 21.30    147.12     53.78      0.00
  199                149.15    140.51     61.75      0.00
  201                 55.76    139.60     60.44      0.00
  203               4927.60    139.40     59.53      0.00
  204                  0.00    146.42     54.34      0.00
  205                 81.70    140.47     51.77      0.00
  206                  0.00    139.21     59.89      0.00
  207                 86.74    139.56     56.57      0.00
  208                  0.00    138.82     53.22      0.00
  209                  1.09    138.14     60.72      0.00
  211                 10.84    137.91     56.72     58.75
  213                 17.42    137.84     56.69      1.40
  215                115.24    137.67     56.62     15.12
  217                 30.27    137.65     57.05      0.00
  219                 51.65    137.64     57.91      0.00
  225                 28.50    137.65     56.18      0.00
  229                 80.22    137.60     55.07     68.62
  231                 20.60    137.59     57.45      0.00
  237                 19.51    137.63     53.57      0.00
  239                 55.76    137.59     53.98      0.00
  241                  0.00    137.59     53.98      0.00
  243                  5.43    137.59     53.55      0.00
  247                 87.97    137.58     51.82      0.00
  249                  0.00    137.58     51.82      0.00
  251                 30.20    137.58     46.62      0.00
  253                 68.15    137.54     44.00      0.00
  255                 50.49    137.59     47.92      0.00
  257                  0.00    153.11     58.98      0.00
  259                  0.00    152.68     55.33      0.00
  261                  0.00    151.14     65.49      0.00
  263                  0.00    150.98     65.42      0.00
  265                  0.00    148.60     64.39      0.00
  267                  0.00    147.19     54.68      0.00
  269                  0.00    147.40     63.87      0.00
  271                  0.00    146.72     60.98      0.00
  273                  0.00    140.47     57.40      0.00
  275                  0.00    139.60     56.16      0.00
  River           -13124.38    220.00      0.00      0.00  Reservoir
  Lake                 0.00    167.00      0.00      0.00  Reservoir
  1                   69.70    146.64      6.39      0.00  Tank
  2                 -148.19    137.75      9.21      0.00  Tank
  3                 2175.11    159.15     13.06      0.00  Tank
   
   
  Link Results at 24:00:00 hrs:
  ----------------------------------------------
                       Flow  Velocity  Headloss
  Link                  gpm       fps   /1000ft
  ----------------------------------------------
  20               -2175.11      0.09      0.00
  40                 -69.70      0.00      0.00
  50                 148.19      0.01      0.00
  60               13124.38      9.31      8.89
  101                  0.00      0.00      0.00
  103                178.66      0.29      0.03
  105               -416.09      1.18      0.50
  107                 44.45      0.13      0.01
  109                 12.16      0.02      0.00
  111               -277.09      0.79      0.24
  112                514.06      1.46      0.74
  113                -36.23      0.10      0.01
  114                131.11      0.84      0.42
  115                -23.85      0.15      0.02
  116                 69.87      0.20      0.02
  117                629.76      1.79      1.08
  119               -734.14      2.08      1.43
  120               1143.98      3.25      3.25
  121               1028.09      2.92      2.67
  122                367.05      2.34      2.85
  123               9852.98      4.47      1.74
  125              13124.38      5.96      2.96
  129               2852.31      2.02      0.60
  131               2576.39      1.83      0.50
  133              -2175.11      2.22      0.89
  135                379.20      0.27      0.01
  137                 53.44      0.09      0.00
  145                325.76      2.08      2.29
  147                318.40      2.03      2.19
  149               -682.39      4.36      9.00
  151               -674.64      4.31      8.81
  153                376.30      1.07      0.41
  155                410.84      1.17      0.49
  159               -421.53      1.20      0.51
  161               -455.36      2.91      4.26
  163               -163.71      0.46      0.09
  169                218.92      1.40      1.10
  171                472.25      1.34      0.63
  173               8016.58      3.64      1.19
  175               7951.85      3.61      1.17
  177               7900.20      3.59      1.16
  179               7635.24      3.47      1.08
  180                  3.25      0.01      0.00
  181                  3.25      0.01      0.00
  183               7424.03      3.37      1.03
  185                -18.20      0.12      0.01
  186                379.78      2.42      3.04
  187               6827.57      3.10      0.88
  189               5212.30      2.37      0.53
  191              -1566.09      1.11      0.20
  193              -1615.39      1.15      0.21
  195                 97.79      0.28      0.03
  197                 25.08      0.07      0.00
  199                -44.62      0.13      0.01
  201                -69.70      0.20      0.02
  202                613.81      3.92      7.40
  203                266.08      1.70      1.57
  204                613.81      1.74      1.03
  205                379.78      1.08      0.42
  207                310.70      0.88      0.29
  209                167.09      1.07      0.66
  211                578.25      1.64      0.92
  213                212.70      0.60      0.14
  215                181.52      0.51      0.11
  217               -240.60      0.68      0.18
  219               -245.20      0.70      0.19
  221                245.20      1.57      1.35
  223                 74.47      0.21      0.02
  225                 95.77      0.27      0.03
  229               5212.30      3.70      1.59
  231               4947.50      3.51      1.44
  233               4927.60      3.49      1.66
  235                115.65      0.33      0.05
  237                522.31      1.48      0.76
  238                525.16      1.49      0.77
  239                 89.59      0.25      0.03
  240                525.16      1.49      0.77
  241                525.16      1.49      0.77
  243                524.07      0.84      0.19
  245                306.94      0.49      0.07
  247                225.66      0.36      0.04
  249                110.43      0.18      0.01
  251                 51.65      0.11      0.00
  257                 28.50      0.08      0.00
  261                 63.85      0.41      0.11
  263                 20.60      0.06      0.00
  269                206.29      0.59      0.14
  271                 36.97      0.24      0.04
  273                149.81      0.42      0.08
  275                 38.58      0.11      0.01
  277                  5.43      0.02      0.00
  281                 33.16      0.14      0.01
  283                 55.46      0.16      0.01
  285                -38.12      0.11      0.01
  287                -16.69      0.07      0.00
  289                148.19      0.61      0.18
  291                 68.15      0.28      0.04
  293                 12.86      0.08      0.01
  295                 17.34      0.05      0.00
  297                482.95      3.08      4.74
  299                232.03      1.48      1.22
  301                232.03      1.48      1.22
  303                250.91      1.60      1.41
  305                146.82      0.42      0.07
  307                397.73      1.13      0.46
  309                196.19      1.25      0.89
  311                -14.67      0.04      0.00
  313                431.17      1.22      0.53
  315              -1713.18      1.21      0.23
  317                125.45      0.80      0.39
  319                 -9.80      0.03      0.00
  321               7620.22      3.46      1.08
  323                -35.86      0.10      0.01
  325                147.09      0.94      0.52
  329              13124.38      5.96      3.00
  330                  0.00      0.00      0.00
  333                 -0.00      0.00      0.00
  10                   0.00      0.00      0.00  Pump
  335              13124.38      0.00    -93.74  Pump
   
  Analysis ended Sat May 02 21:01:17 2020
