  Page 1                                    Wed May 06 18:21:35 2020

  ******************************************************************
  *                           E P A N E T                          *
  *                   Hydraulic and Water Quality                  *
  *                   Analysis for Pipe Networks                   *
  *                         Version 2.00.12                        *
  ******************************************************************
  
  Analysis begun Wed May 06 18:21:35 2020

   
  Hydraulic Status:
  -----------------------------------------------------------------------
     0:00:00: Balanced after 6 trials
     0:00:00: Reservoir River is emptying
     0:00:00: Reservoir Lake is closed
     0:00:00: Tank 1 is filling at 13.10 ft
     0:00:00: Tank 2 is emptying at 23.50 ft
     0:00:00: Tank 3 is filling at 29.00 ft
   
     0:05:00: Balanced after 2 trials
   
     0:10:00: Balanced after 2 trials
   
     0:15:00: Balanced after 2 trials
   
     0:20:00: Balanced after 2 trials
   
     0:25:00: Balanced after 2 trials
   
     0:30:00: Balanced after 2 trials
   
     0:35:00: Balanced after 2 trials
   
     0:40:00: Balanced after 2 trials
   
     0:45:00: Balanced after 2 trials
   
     0:50:00: Balanced after 2 trials
   
     0:55:00: Balanced after 2 trials
   
     1:00:00: Pump 10 changed by timer control
     1:00:00: Balanced after 7 trials
     1:00:00: Reservoir Lake is emptying
     1:00:00: Pump 10 changed from closed to open
   
     1:05:00: Balanced after 2 trials
   
     1:10:00: Balanced after 2 trials
   
     1:15:00: Balanced after 2 trials
   
     1:20:00: Balanced after 2 trials
   
     1:25:00: Balanced after 2 trials
   
     1:30:00: Balanced after 2 trials
   
     1:35:00: Balanced after 2 trials
   
     1:40:00: Balanced after 2 trials
   
     1:45:00: Balanced after 2 trials
   
     1:50:00: Balanced after 2 trials
   
     1:55:00: Balanced after 2 trials
   
     2:00:00: Balanced after 2 trials
     2:00:00: Tank 2 is filling at 21.31 ft
   
     2:05:00: Balanced after 1 trials
   
     2:10:00: Balanced after 1 trials
   
     2:15:00: Balanced after 1 trials
   
     2:20:00: Balanced after 1 trials
   
     2:25:00: Balanced after 1 trials
   
     2:30:00: Balanced after 1 trials
   
     2:35:00: Balanced after 1 trials
   
     2:40:00: Balanced after 1 trials
   
     2:45:00: Balanced after 1 trials
   
     2:50:00: Balanced after 1 trials
   
     2:55:00: Balanced after 1 trials
   
     3:00:00: Balanced after 2 trials
   
     3:05:00: Balanced after 1 trials
   
     3:10:00: Balanced after 1 trials
   
     3:15:00: Balanced after 1 trials
   
     3:20:00: Balanced after 1 trials
   
     3:25:00: Balanced after 1 trials
   
     3:30:00: Balanced after 1 trials
   
     3:35:00: Balanced after 1 trials
   
     3:40:00: Balanced after 1 trials
   
     3:45:00: Balanced after 1 trials
   
     3:50:00: Balanced after 1 trials
   
     3:55:00: Balanced after 1 trials
   
     4:00:00: Balanced after 3 trials
   
     4:05:00: Balanced after 1 trials
   
     4:10:00: Balanced after 1 trials
   
     4:15:00: Balanced after 1 trials
   
     4:20:00: Balanced after 1 trials
   
     4:25:00: Balanced after 1 trials
   
     4:28:28: Pump 335 changed by Tank 1 control
     4:28:28: Pipe 330 changed by Tank 1 control
     4:28:28: Balanced after 4 trials
     4:28:28: Pipe 330 changed from closed to open
     4:28:28: Pump 335 changed from open to closed
   
     4:30:00: Balanced after 1 trials
   
     4:35:00: Balanced after 2 trials
   
     4:40:00: Balanced after 2 trials
   
     4:45:00: Balanced after 2 trials
   
     4:50:00: Balanced after 2 trials
   
     4:55:00: Balanced after 2 trials
   
     5:00:00: Balanced after 3 trials
     5:00:00: Tank 3 is emptying at 34.58 ft
   
     5:05:00: Balanced after 2 trials
   
     5:10:00: Balanced after 2 trials
   
     5:15:00: Balanced after 2 trials
   
     5:20:00: Balanced after 2 trials
   
     5:25:00: Balanced after 2 trials
   
     5:30:00: Balanced after 2 trials
   
     5:35:00: Balanced after 2 trials
   
     5:40:00: Balanced after 2 trials
   
     5:45:00: Balanced after 2 trials
   
     5:50:00: Balanced after 2 trials
   
     5:55:00: Balanced after 2 trials
   
     6:00:00: Balanced after 3 trials
     6:00:00: Tank 3 is filling at 34.44 ft
   
     6:05:00: Balanced after 2 trials
   
     6:10:00: Balanced after 2 trials
   
     6:15:00: Balanced after 2 trials
   
     6:20:00: Balanced after 1 trials
   
     6:25:00: Balanced after 1 trials
   
     6:30:00: Balanced after 1 trials
   
     6:35:00: Balanced after 1 trials
   
     6:40:00: Balanced after 1 trials
   
     6:45:00: Balanced after 1 trials
   
     6:50:00: Balanced after 1 trials
   
     6:55:00: Balanced after 1 trials
   
     7:00:00: Balanced after 4 trials
     7:00:00: Tank 1 is emptying at 21.14 ft
     7:00:00: Tank 2 is emptying at 25.71 ft
   
     7:05:00: Balanced after 2 trials
   
     7:10:00: Balanced after 2 trials
   
     7:15:00: Balanced after 2 trials
   
     7:20:00: Balanced after 2 trials
   
     7:25:00: Balanced after 2 trials
   
     7:30:00: Balanced after 2 trials
   
     7:35:00: Balanced after 2 trials
   
     7:40:00: Balanced after 2 trials
   
     7:45:00: Balanced after 2 trials
   
     7:50:00: Balanced after 2 trials
   
     7:55:00: Balanced after 2 trials
   
     8:00:00: Balanced after 3 trials
     8:00:00: Tank 1 is filling at 20.88 ft
     8:00:00: Tank 2 is filling at 25.28 ft
   
     8:05:00: Balanced after 1 trials
   
     8:10:00: Balanced after 1 trials
   
     8:15:00: Balanced after 1 trials
   
     8:20:00: Balanced after 1 trials
   
     8:25:00: Balanced after 1 trials
   
     8:30:00: Balanced after 1 trials
   
     8:35:00: Balanced after 1 trials
   
     8:40:00: Balanced after 1 trials
   
     8:45:00: Balanced after 1 trials
   
     8:50:00: Balanced after 1 trials
   
     8:55:00: Balanced after 1 trials
   
     9:00:00: Balanced after 3 trials
     9:00:00: Tank 3 is emptying at 35.26 ft
   
     9:05:00: Balanced after 2 trials
   
     9:10:00: Balanced after 2 trials
   
     9:15:00: Balanced after 2 trials
   
     9:20:00: Balanced after 2 trials
   
     9:25:00: Balanced after 2 trials
   
     9:30:00: Balanced after 2 trials
   
     9:35:00: Balanced after 2 trials
   
     9:40:00: Balanced after 2 trials
   
     9:45:00: Balanced after 2 trials
   
     9:50:00: Balanced after 2 trials
   
     9:55:00: Balanced after 2 trials
   
    10:00:00: Balanced after 2 trials
   
    10:05:00: Balanced after 2 trials
   
    10:10:00: Balanced after 2 trials
   
    10:15:00: Balanced after 2 trials
   
    10:20:00: Balanced after 2 trials
   
    10:25:00: Balanced after 2 trials
   
    10:30:00: Balanced after 2 trials
   
    10:35:00: Balanced after 2 trials
   
    10:40:00: Balanced after 2 trials
   
    10:45:00: Balanced after 2 trials
   
    10:50:00: Balanced after 2 trials
   
    10:55:00: Balanced after 2 trials
   
    11:00:00: Balanced after 4 trials
    11:00:00: Tank 1 is emptying at 22.01 ft
    11:00:00: Tank 2 is emptying at 26.98 ft
   
    11:05:00: Balanced after 1 trials
   
    11:10:00: Balanced after 1 trials
   
    11:15:00: Balanced after 1 trials
   
    11:20:00: Balanced after 1 trials
   
    11:25:00: Balanced after 1 trials
   
    11:30:00: Balanced after 1 trials
   
    11:35:00: Balanced after 1 trials
   
    11:40:00: Balanced after 1 trials
   
    11:45:00: Balanced after 1 trials
   
    11:50:00: Balanced after 1 trials
   
    11:55:00: Balanced after 1 trials
   
    12:00:00: Balanced after 3 trials
   
    12:05:00: Balanced after 1 trials
   
    12:10:00: Balanced after 1 trials
   
    12:15:00: Balanced after 1 trials
   
    12:20:00: Balanced after 1 trials
   
    12:25:00: Balanced after 1 trials
   
    12:30:00: Balanced after 1 trials
   
    12:35:00: Balanced after 1 trials
   
    12:40:00: Balanced after 1 trials
   
    12:45:00: Balanced after 1 trials
   
    12:50:00: Balanced after 1 trials
   
    12:55:00: Balanced after 1 trials
   
    13:00:00: Balanced after 2 trials
    13:00:00: Tank 2 is filling at 26.75 ft
   
    13:05:00: Balanced after 1 trials
   
    13:10:00: Balanced after 1 trials
   
    13:15:00: Balanced after 1 trials
   
    13:20:00: Balanced after 1 trials
   
    13:25:00: Balanced after 1 trials
   
    13:30:00: Balanced after 1 trials
   
    13:35:00: Balanced after 1 trials
   
    13:40:00: Balanced after 1 trials
   
    13:45:00: Balanced after 1 trials
   
    13:50:00: Balanced after 1 trials
   
    13:55:00: Balanced after 1 trials
   
    14:00:00: Balanced after 3 trials
    14:00:00: Tank 1 is filling at 21.24 ft
   
    14:05:00: Balanced after 2 trials
   
    14:10:00: Balanced after 2 trials
   
    14:15:00: Balanced after 2 trials
   
    14:20:00: Balanced after 2 trials
   
    14:25:00: Balanced after 2 trials
   
    14:30:00: Balanced after 2 trials
   
    14:35:00: Balanced after 2 trials
   
    14:40:00: Balanced after 2 trials
   
    14:45:00: Balanced after 2 trials
   
    14:50:00: Balanced after 2 trials
   
    14:55:00: Balanced after 2 trials
   
    15:00:00: Pump 10 changed by timer control
    15:00:00: Balanced after 4 trials
    15:00:00: Reservoir Lake is closed
    15:00:00: Tank 1 is emptying at 21.46 ft
    15:00:00: Pump 10 changed from open to closed
   
    15:05:00: Balanced after 2 trials
   
    15:10:00: Balanced after 2 trials
   
    15:15:00: Balanced after 2 trials
   
    15:20:00: Balanced after 2 trials
    15:20:00: Tank 2 is emptying at 27.28 ft
   
    15:25:00: Balanced after 2 trials
   
    15:30:00: Balanced after 2 trials
   
    15:35:00: Balanced after 2 trials
   
    15:40:00: Balanced after 2 trials
   
    15:45:00: Balanced after 2 trials
   
    15:50:00: Balanced after 2 trials
   
    15:55:00: Balanced after 2 trials
   
    16:00:00: Balanced after 3 trials
   
    16:05:00: Balanced after 1 trials
   
    16:10:00: Balanced after 1 trials
   
    16:15:00: Balanced after 1 trials
   
    16:20:00: Balanced after 1 trials
   
    16:25:00: Balanced after 1 trials
   
    16:30:00: Balanced after 1 trials
   
    16:35:00: Balanced after 1 trials
   
    16:40:00: Balanced after 1 trials
   
    16:45:00: Balanced after 1 trials
   
    16:50:00: Balanced after 1 trials
   
    16:55:00: Balanced after 1 trials
   
    17:00:00: Balanced after 3 trials
    17:00:00: Tank 2 is filling at 26.65 ft
   
    17:05:00: Balanced after 2 trials
   
    17:10:00: Balanced after 2 trials
   
    17:15:00: Balanced after 2 trials
   
    17:20:00: Balanced after 2 trials
   
    17:25:00: Balanced after 2 trials
   
    17:30:00: Balanced after 1 trials
   
    17:35:00: Balanced after 1 trials
   
    17:40:00: Balanced after 1 trials
   
    17:45:00: Balanced after 1 trials
   
    17:50:00: Balanced after 1 trials
   
    17:55:00: Balanced after 1 trials
   
    18:00:00: Balanced after 3 trials
   
    18:05:00: Balanced after 1 trials
   
    18:10:00: Balanced after 1 trials
   
    18:15:00: Balanced after 1 trials
   
    18:20:00: Balanced after 1 trials
   
    18:25:00: Balanced after 1 trials
   
    18:30:00: Balanced after 1 trials
   
    18:35:00: Balanced after 1 trials
   
    18:40:00: Balanced after 1 trials
   
    18:45:00: Balanced after 1 trials
   
    18:50:00: Balanced after 1 trials
   
    18:55:00: Balanced after 1 trials
   
    19:00:00: Balanced after 3 trials
    19:00:00: Tank 2 is emptying at 27.18 ft
   
    19:05:00: Balanced after 1 trials
   
    19:10:00: Balanced after 1 trials
   
    19:15:00: Balanced after 1 trials
   
    19:20:00: Balanced after 1 trials
   
    19:25:00: Balanced after 1 trials
   
    19:30:00: Balanced after 1 trials
   
    19:35:00: Balanced after 1 trials
   
    19:40:00: Balanced after 1 trials
   
    19:45:00: Balanced after 1 trials
   
    19:50:00: Balanced after 1 trials
   
    19:55:00: Balanced after 1 trials
   
    20:00:00: Balanced after 3 trials
   
    20:05:00: Balanced after 1 trials
   
    20:10:00: Balanced after 1 trials
   
    20:15:00: Balanced after 1 trials
   
    20:20:00: Balanced after 1 trials
   
    20:25:00: Balanced after 1 trials
   
    20:30:00: Balanced after 1 trials
   
    20:35:00: Balanced after 1 trials
   
    20:40:00: Balanced after 1 trials
   
    20:45:00: Balanced after 1 trials
   
    20:50:00: Balanced after 1 trials
   
    20:53:12: Pump 335 changed by Tank 1 control
    20:53:12: Pipe 330 changed by Tank 1 control
    20:53:12: Balanced after 5 trials
    20:53:12: Tank 1 is filling at 17.10 ft
    20:53:12: Tank 3 is filling at 29.65 ft
    20:53:12: Pipe 330 changed from open to closed
    20:53:12: Pump 335 changed from closed to open
   
    20:55:00: Balanced after 1 trials
   
    21:00:00: Balanced after 2 trials
   
    21:05:00: Balanced after 2 trials
   
    21:10:00: Balanced after 2 trials
   
    21:15:00: Balanced after 2 trials
   
    21:20:00: Balanced after 2 trials
   
    21:25:00: Balanced after 2 trials
   
    21:30:00: Balanced after 2 trials
   
    21:35:00: Balanced after 2 trials
   
    21:40:00: Balanced after 2 trials
    21:40:00: Tank 2 is filling at 25.71 ft
   
    21:45:00: Balanced after 2 trials
   
    21:50:00: Balanced after 2 trials
   
    21:55:00: Balanced after 2 trials
   
    22:00:00: Balanced after 3 trials
    22:00:00: Tank 1 is emptying at 17.52 ft
    22:00:00: Tank 2 is emptying at 25.72 ft
   
    22:05:00: Balanced after 2 trials
   
    22:10:00: Balanced after 2 trials
   
    22:15:00: Balanced after 2 trials
   
    22:20:00: Balanced after 2 trials
   
    22:25:00: Balanced after 2 trials
   
    22:30:00: Balanced after 2 trials
   
    22:35:00: Balanced after 2 trials
   
    22:40:00: Balanced after 2 trials
   
    22:45:00: Balanced after 2 trials
   
    22:50:00: Balanced after 2 trials
   
    22:55:00: Balanced after 2 trials
   
    23:00:00: Balanced after 4 trials
   
    23:05:00: Balanced after 2 trials
   
    23:10:00: Balanced after 2 trials
   
    23:15:00: Balanced after 2 trials
   
    23:20:00: Balanced after 2 trials
   
    23:25:00: Balanced after 2 trials
   
    23:30:00: Balanced after 2 trials
   
    23:35:00: Balanced after 2 trials
   
    23:40:00: Balanced after 2 trials
   
    23:45:00: Balanced after 2 trials
   
    23:50:00: Balanced after 2 trials
   
    23:55:00: Balanced after 2 trials
   
    24:00:00: Balanced after 4 trials
   
   
  Node Results at 0:00:00 hrs:
  --------------------------------------------------------
                     Demand      Head  Pressure  Chemical
  Node                  gpm        ft       psi      mg/L
  --------------------------------------------------------
  10                   0.00    144.88     -0.92      0.00
  15                 684.79    119.30     37.83      0.00
  20                   0.00    158.00     12.57      0.00
  35                1664.40    145.17     57.48      0.00
  40                   0.00    145.00      5.68      0.00
  50                   0.00    140.00     10.18      0.00
  60                   0.00    208.99     90.56      0.00
  601                  0.00    302.35    131.01      0.00
  61                   0.00    302.35    131.01      0.00
  101                258.33    144.88     44.58      0.00
  103                181.15    144.85     44.13      0.00
  105                184.10    146.22     51.01      0.00
  107                 74.31    146.21     53.82      0.00
  109                314.70    144.85     53.97      0.00
  111                193.04    145.49     58.71      0.00
  113                 27.21    145.54     62.19      0.00
  115                 70.86    146.31     57.33      0.00
  117                160.09    149.48     58.88      0.00
  119                239.54    157.16     67.23      0.00
  120                  0.00    154.68     67.02      0.00
  121                 56.62    160.70     70.50      0.00
  123                  0.00    165.17     66.80      0.00
  125                 62.02    160.17     64.63      0.00
  127                 24.02    158.64     44.47      0.00
  129                  0.00    158.63     46.63      0.00
  131                 58.14    158.61     66.12      0.00
  139                  8.01    151.97     52.42      0.00
  141                 13.40    147.22     62.06      0.00
  143                  8.43    134.25     60.12      0.00
  145                 37.58    148.70     64.00      0.00
  147                 11.63    149.80     56.89      0.00
  149                 36.82    150.26     58.17      0.00
  151                196.49    154.77     52.55      0.00
  153                 60.07    154.87     38.42      0.00
  157                 70.43    154.67     61.34      0.00
  159                 56.20    151.25     62.94      0.00
  161                 21.49    148.92     62.80      0.00
  163                 12.81    148.46     62.16      0.00
  164                  0.00    148.46     62.16      0.00
  166                  3.54    148.46     65.19      0.00
  167                 19.80    146.55     65.67      0.00
  169                  0.00    146.55     65.67      0.00
  171                 53.50    145.44     64.75      0.00
  173                  0.00    145.42     64.74      0.00
  177                 79.11    145.17     59.43      0.00
  179                  0.00    145.16     59.43      0.00
  181                  0.00    145.17     59.44      0.00
  183                  0.00    145.16     58.13      0.00
  184                  0.00    143.75     55.35      0.00
  185                 34.88    144.41     55.64      0.00
  187                  0.00    145.15     57.48      0.00
  189                146.77    145.49     61.31      0.00
  191                111.38    145.43     52.18      0.00
  193                 96.98    145.53     55.26      0.00
  195                  0.00    145.61     56.38      0.00
  197                 23.17    145.44     53.05      0.00
  199                162.28    139.65     61.38      0.00
  201                 60.67    138.83     60.11      0.00
  203               4825.06    138.64     59.20      0.00
  204                  0.00    144.89     53.68      0.00
  205                 88.89    139.63     51.40      0.00
  206                  0.00    138.77     59.70      0.00
  207                 94.37    138.89     56.28      0.00
  208                  0.00    138.64     53.14      0.00
  209                  1.18    138.40     60.84      0.00
  211                 11.79    138.32     56.90      0.00
  213                 18.96    138.26     56.87      0.00
  215                125.38    138.06     56.79      0.00
  217                 32.94    138.04     57.21      0.00
  219                 56.20    138.03     58.07      0.00
  225                 31.01    138.03     56.34      0.00
  229                 87.28    138.19     55.33      0.00
  231                 22.41    138.19     57.71      0.00
  237                 21.23    138.33     53.87      0.00
  239                 60.67    138.35     54.31      0.00
  241                  0.00    138.35     54.31      0.00
  243                  5.90    138.35     53.88      0.00
  247                 95.72    138.37     52.15      0.00
  249                  0.00    138.37     52.15      0.00
  251                 32.86    138.40     46.97      0.00
  253                 74.15    138.72     44.51      0.00
  255                 54.93    138.77     48.43      0.00
  257                  0.00    151.49     58.28      0.00
  259                  0.00    151.05     54.62      0.00
  261                  0.00    149.43     64.75      0.00
  263                  0.00    149.27     64.68      0.00
  265                  0.00    147.16     63.76      0.00
  267                  0.00    145.56     53.97      0.00
  269                  0.00    145.89     63.22      0.00
  271                  0.00    145.25     60.34      0.00
  273                  0.00    139.63     57.03      0.00
  275                  0.00    138.86     55.84      0.00
  River           -13168.04    220.00      0.00      0.00  Reservoir
  Lake                 0.00    167.00      0.00      0.00  Reservoir
  1                  207.70    145.00      5.68      0.00  Tank
  2                 -436.80    140.00     10.18      0.00  Tank
  3                 2077.47    158.00     12.57      0.00  Tank
   
   
  Link Results at 0:00:00 hrs:
  ----------------------------------------------
                       Flow  Velocity  Headloss
  Link                  gpm       fps   /1000ft
  ----------------------------------------------
  20               -2077.47      0.09      0.00
  40                -207.70      0.01      0.00
  50                 436.80      0.02      0.00
  60               13168.04      9.34      8.94
  101                  0.00      0.00      0.00
  103                169.05      0.27      0.02
  105               -427.38      1.21      0.53
  107                 31.80      0.09      0.00
  109                -12.10      0.02      0.00
  111               -326.80      0.93      0.32
  112                502.43      1.43      0.71
  113                -85.27      0.24      0.03
  114                125.06      0.80      0.39
  115                -42.51      0.27      0.05
  116                 12.58      0.04      0.00
  117                643.29      1.82      1.12
  119               -740.86      2.10      1.45
  120               1171.35      3.32      3.40
  121               1050.69      2.98      2.78
  122                372.89      2.38      2.94
  123               9955.28      4.52      1.77
  125              13168.04      5.98      2.98
  129               2783.26      1.97      0.58
  131               2495.46      1.77      0.47
  133              -2077.47      2.12      0.82
  135                393.97      0.28      0.02
  137                 58.14      0.09      0.00
  145                335.83      2.14      2.42
  147                327.82      2.09      2.32
  149               -693.22      4.42      9.27
  151               -684.79      4.37      9.06
  153                378.80      1.07      0.42
  155                416.37      1.18      0.50
  159               -428.00      1.21      0.53
  161               -464.82      2.97      4.42
  163               -165.71      0.47      0.09
  169                225.78      1.44      1.16
  171                495.59      1.41      0.69
  173               8048.81      3.65      1.20
  175               7978.37      3.62      1.18
  177               7922.18      3.60      1.16
  179               7646.76      3.47      1.09
  180                  3.54      0.01      0.00
  181                  3.54      0.01      0.00
  183               7420.99      3.37      1.03
  185                -19.80      0.13      0.01
  186                351.77      2.25      2.64
  187               6790.19      3.08      0.87
  189               4951.89      2.25      0.49
  191              -1784.80      1.27      0.25
  193              -1664.40      1.18      0.22
  195                263.48      0.75      0.21
  197                184.37      0.52      0.11
  199                -23.33      0.07      0.00
  201               -207.70      0.59      0.14
  202                575.18      3.67      6.56
  203                258.29      1.65      1.49
  204                575.18      1.63      0.91
  205                351.77      1.00      0.37
  207                281.62      0.80      0.24
  209                168.66      1.08      0.68
  211                611.00      1.73      1.02
  213                183.11      0.52      0.11
  215                129.13      0.37      0.06
  217               -249.82      0.71      0.19
  219               -253.93      0.72      0.20
  221                253.93      1.62      1.44
  223                 44.68      0.13      0.01
  225                 67.86      0.19      0.02
  229               4951.89      3.51      1.44
  231               4694.41      3.33      1.31
  233               4825.06      3.42      1.60
  235                 95.20      0.27      0.03
  237                464.67      1.32      0.61
  238                295.80      0.84      0.27
  239                -74.50      0.21      0.02
  240                295.80      0.84      0.27
  241                295.80      0.84      0.27
  243                294.62      0.47      0.06
  245                295.40      0.47      0.07
  247                245.52      0.39      0.05
  249                120.14      0.19      0.01
  251                 56.20      0.12      0.01
  257                 31.01      0.09      0.00
  261                 30.92      0.20      0.03
  263                 22.41      0.06      0.00
  269                -12.57      0.04      0.00
  271                 78.78      0.50      0.17
  273               -112.58      0.32      0.04
  275                -61.25      0.17      0.01
  277                  5.90      0.02      0.00
  281                -67.15      0.27      0.04
  283               -112.00      0.32      0.04
  285                 29.48      0.08      0.00
  287               -192.35      0.79      0.29
  289                436.80      1.78      1.33
  291                 74.15      0.30      0.05
  293                115.37      0.74      0.33
  295                -82.52      0.23      0.02
  297                493.55      3.15      4.94
  299                237.12      1.51      1.27
  301                237.12      1.51      1.27
  303                256.43      1.64      1.47
  305                149.75      0.42      0.08
  307                406.17      1.15      0.48
  309                209.42      1.34      1.01
  311                -80.28      0.23      0.02
  313                467.91      1.33      0.62
  315              -1927.89      1.37      0.29
  317                116.82      0.75      0.34
  319                -21.62      0.06      0.00
  321               7630.41      3.46      1.08
  323               -191.32      0.54      0.12
  325                143.09      0.91      0.50
  329              13168.04      5.98      3.01
  330                  0.00      0.00      0.00
  333                 -0.00      0.00      0.00
  10                   0.00      0.00      0.00  Pump
  335              13168.05      0.00    -93.35  Pump
   
   
  Node Results at 0:05:00 hrs:
  --------------------------------------------------------
                     Demand      Head  Pressure  Chemical
  Node                  gpm        ft       psi      mg/L
  --------------------------------------------------------
  10                   0.00    144.91     -0.91      0.00
  15                 684.79    119.35     37.85      0.00
  20                   0.00    158.07     12.59      0.00
  35                1664.40    145.19     57.49      0.00
  40                   0.00    145.02      5.69      0.00
  50                   0.00    139.85     10.12      0.00
  60                   0.00    209.00     90.56      0.00
  601                  0.00    302.36    131.01      0.00
  61                   0.00    302.36    131.01      0.00
  101                258.33    144.91     44.59      0.00
  103                181.15    144.88     44.14      0.00
  105                184.10    146.24     51.02      0.00
  107                 74.31    146.24     53.83      0.00
  109                314.70    144.88     53.98      0.00
  111                193.04    145.51     58.72      0.00
  113                 27.21    145.56     62.20      0.00
  115                 70.86    146.34     57.34      0.00
  117                160.09    149.51     58.89      0.00
  119                239.54    157.20     67.25      0.00
  120                  0.00    154.71     67.04      0.00
  121                 56.62    160.75     70.52      0.00
  123                  0.00    165.21     66.82      0.00
  125                 62.02    160.22     64.65      0.00
  127                 24.02    158.70     44.50      0.00
  129                  0.00    158.69     46.66      0.00
  131                 58.14    158.67     66.15      0.00
  139                  8.01    152.02     52.44      0.00
  141                 13.40    147.27     62.08      0.00
  143                  8.43    134.30     60.14      0.00
  145                 37.58    148.74     64.02      0.00
  147                 11.63    149.84     56.91      0.00
  149                 36.82    150.31     58.19      0.00
  151                196.49    154.81     52.56      0.00
  153                 60.07    154.92     38.44      0.00
  157                 70.43    154.71     61.36      0.00
  159                 56.20    151.28     62.95      0.00
  161                 21.49    148.95     62.81      0.00
  163                 12.81    148.48     62.17      0.00
  164                  0.00    148.48     62.17      0.00
  166                  3.54    148.48     65.20      0.00
  167                 19.80    146.57     65.68      0.00
  169                  0.00    146.57     65.68      0.00
  171                 53.50    145.46     64.76      0.00
  173                  0.00    145.44     64.75      0.00
  177                 79.11    145.19     59.44      0.00
  179                  0.00    145.18     59.44      0.00
  181                  0.00    145.19     59.45      0.00
  183                  0.00    145.19     58.14      0.00
  184                  0.00    143.76     55.36      0.00
  185                 34.88    144.42     55.65      0.00
  187                  0.00    145.17     57.49      0.00
  189                146.77    145.51     61.32      0.00
  191                111.38    145.46     52.19      0.00
  193                 96.98    145.56     55.27      0.00
  195                  0.00    145.63     56.38      0.00
  197                 23.17    145.47     53.06      0.00
  199                162.28    139.65     61.38      0.00
  201                 60.67    138.82     60.11      0.00
  203               4825.06    138.63     59.20      0.00
  204                  0.00    144.91     53.69      0.00
  205                 88.89    139.62     51.40      0.00
  206                  0.00    138.75     59.69      0.00
  207                 94.37    138.88     56.28      0.00
  208                  0.00    138.61     53.12      0.00
  209                  1.18    138.35     60.82      0.00
  211                 11.79    138.27     56.88      0.00
  213                 18.96    138.20     56.85      0.00
  215                125.38    138.01     56.76      0.00
  217                 32.94    137.99     57.19      0.00
  219                 56.20    137.97     58.05      0.00
  225                 31.01    137.98     56.32      0.00
  229                 87.28    138.14     55.31      0.00
  231                 22.41    138.13     57.69      0.00
  237                 21.23    138.27     53.85      0.00
  239                 60.67    138.29     54.29      0.00
  241                  0.00    138.29     54.29      0.00
  243                  5.90    138.29     53.85      0.00
  247                 95.72    138.30     52.13      0.00
  249                  0.00    138.30     52.13      0.00
  251                 32.86    138.34     46.94      0.00
  253                 74.15    138.63     44.47      0.00
  255                 54.93    138.68     48.39      0.00
  257                  0.00    151.52     58.29      0.00
  259                  0.00    151.08     54.63      0.00
  261                  0.00    149.46     64.76      0.00
  263                  0.00    149.30     64.69      0.00
  265                  0.00    147.18     63.77      0.00
  267                  0.00    145.58     53.98      0.00
  269                  0.00    145.91     63.22      0.00
  271                  0.00    145.27     60.35      0.00
  273                  0.00    139.62     57.03      0.00
  275                  0.00    138.85     55.83      0.00
  River           -13166.55    220.00      0.00      0.00  Reservoir
  Lake                 0.00    167.00      0.00      0.00  Reservoir
  1                  204.88    145.02      5.69      0.00  Tank
  2                 -425.40    139.85     10.12      0.00  Tank
  3                 2067.39    158.07     12.59      0.00  Tank
   
   
  Link Results at 0:05:00 hrs:
  ----------------------------------------------
                       Flow  Velocity  Headloss
  Link                  gpm       fps   /1000ft
  ----------------------------------------------
  20               -2067.39      0.09      0.00
  40                -204.88      0.01      0.00
  50                 425.40      0.02      0.00
  60               13166.55      9.34      8.94
  101                  0.00      0.00      0.00
  103                169.33      0.27      0.02
  105               -427.66      1.21      0.53
  107                 31.98      0.09      0.00
  109                -11.82      0.02      0.00
  111               -326.53      0.93      0.32
  112                503.05      1.43      0.71
  113                -84.79      0.24      0.03
  114                125.26      0.80      0.39
  115                -42.33      0.27      0.05
  116                 13.26      0.04      0.00
  117                643.75      1.83      1.12
  119               -741.50      2.10      1.46
  120               1172.16      3.33      3.40
  121               1051.44      2.98      2.78
  122                373.17      2.38      2.94
  123               9963.26      4.52      1.78
  125              13166.55      5.98      2.97
  129               2773.50      1.97      0.57
  131               2485.56      1.76      0.47
  133              -2067.39      2.11      0.81
  135                394.15      0.28      0.02
  137                 58.14      0.09      0.00
  145                336.01      2.14      2.42
  147                328.00      2.09      2.32
  149               -693.22      4.42      9.27
  151               -684.79      4.37      9.06
  153                378.62      1.07      0.42
  155                416.19      1.18      0.50
  159               -427.82      1.21      0.53
  161               -464.64      2.97      4.42
  163               -165.85      0.47      0.09
  169                225.92      1.44      1.16
  171                495.28      1.41      0.69
  173               8056.28      3.66      1.20
  175               7985.85      3.62      1.18
  177               7929.65      3.60      1.16
  179               7654.09      3.47      1.09
  180                  3.54      0.01      0.00
  181                  3.54      0.01      0.00
  183               7428.29      3.37      1.03
  185                -19.80      0.13      0.01
  186                352.58      2.25      2.65
  187               6797.35      3.09      0.87
  189               4961.93      2.25      0.49
  191              -1781.92      1.26      0.25
  193              -1664.40      1.18      0.22
  195                260.77      0.74      0.21
  197                181.66      0.52      0.11
  199                -23.22      0.07      0.00
  201               -204.88      0.58      0.13
  202                576.54      3.68      6.59
  203                258.84      1.65      1.49
  204                576.54      1.64      0.91
  205                352.58      1.00      0.37
  207                282.06      0.80      0.24
  209                168.86      1.08      0.68
  211                611.13      1.73      1.02
  213                183.72      0.52      0.11
  215                129.81      0.37      0.06
  217               -250.00      0.71      0.19
  219               -254.07      0.72      0.20
  221                254.07      1.62      1.44
  223                 45.10      0.13      0.01
  225                 68.28      0.19      0.02
  229               4961.93      3.52      1.45
  231               4702.20      3.33      1.31
  233               4825.06      3.42      1.60
  235                 97.45      0.28      0.03
  237                467.94      1.33      0.62
  238                307.20      0.87      0.28
  239                -66.37      0.19      0.02
  240                307.20      0.87      0.28
  241                307.20      0.87      0.28
  243                306.02      0.49      0.07
  245                295.61      0.47      0.07
  247                245.52      0.39      0.05
  249                120.14      0.19      0.01
  251                 56.20      0.12      0.01
  257                 31.01      0.09      0.00
  261                 31.13      0.20      0.03
  263                 22.41      0.06      0.00
  269                 -1.38      0.00      0.00
  271                 78.57      0.50      0.16
  273               -101.18      0.29      0.04
  275                -56.98      0.16      0.01
  277                  5.90      0.02      0.00
  281                -62.88      0.26      0.04
  283               -104.87      0.30      0.04
  285                 26.53      0.08      0.00
  287               -185.13      0.76      0.27
  289                425.40      1.74      1.27
  291                 74.15      0.30      0.05
  293                111.19      0.71      0.31
  295                -78.33      0.22      0.02
  297                493.90      3.15      4.95
  299                237.29      1.51      1.27
  301                237.29      1.51      1.27
  303                256.61      1.64      1.47
  305                149.85      0.43      0.08
  307                406.46      1.15      0.48
  309                209.46      1.34      1.01
  311                -79.65      0.23      0.02
  313                467.89      1.33      0.62
  315              -1925.17      1.37      0.29
  317                117.16      0.75      0.34
  319                -19.71      0.06      0.00
  321               7637.75      3.47      1.09
  323               -183.53      0.52      0.11
  325                143.24      0.91      0.50
  329              13166.55      5.98      3.01
  330                  0.00      0.00      0.00
  333                 -0.00      0.00      0.00
  10                   0.00      0.00      0.00  Pump
  335              13166.55      0.00    -93.37  Pump
   
   
  Node Results at 0:10:00 hrs:
  --------------------------------------------------------
                     Demand      Head  Pressure  Chemical
  Node                  gpm        ft       psi      mg/L
  --------------------------------------------------------
  10                   0.00    144.93     -0.90      0.00
  15                 684.79    119.40     37.87      0.00
  20                   0.00    158.13     12.62      0.00
  35                1664.40    145.21     57.50      0.00
  40                   0.00    145.05      5.70      0.00
  50                   0.00    139.71     10.06      0.00
  60                   0.00    209.00     90.56      0.00
  601                  0.00    302.38    131.02      0.00
  61                   0.00    302.38    131.02      0.00
  101                258.33    144.93     44.60      0.00
  103                181.15    144.90     44.15      0.00
  105                184.10    146.27     51.03      0.00
  107                 74.31    146.26     53.84      0.00
  109                314.70    144.90     53.99      0.00
  111                193.04    145.54     58.73      0.00
  113                 27.21    145.58     62.21      0.00
  115                 70.86    146.36     57.35      0.00
  117                160.09    149.54     58.90      0.00
  119                239.54    157.24     67.26      0.00
  120                  0.00    154.75     67.05      0.00
  121                 56.62    160.79     70.54      0.00
  123                  0.00    165.25     66.84      0.00
  125                 62.02    160.26     64.68      0.00
  127                 24.02    158.76     44.53      0.00
  129                  0.00    158.75     46.69      0.00
  131                 58.14    158.73     66.18      0.00
  139                  8.01    152.07     52.46      0.00
  141                 13.40    147.32     62.10      0.00
  143                  8.43    134.34     60.16      0.00
  145                 37.58    148.79     64.04      0.00
  147                 11.63    149.89     56.93      0.00
  149                 36.82    150.35     58.21      0.00
  151                196.49    154.85     52.58      0.00
  153                 60.07    154.96     38.46      0.00
  157                 70.43    154.74     61.37      0.00
  159                 56.20    151.31     62.96      0.00
  161                 21.49    148.98     62.82      0.00
  163                 12.81    148.51     62.18      0.00
  164                  0.00    148.51     62.18      0.00
  166                  3.54    148.51     65.21      0.00
  167                 19.80    146.59     65.69      0.00
  169                  0.00    146.59     65.69      0.00
  171                 53.50    145.48     64.77      0.00
  173                  0.00    145.46     64.76      0.00
  177                 79.11    145.21     59.45      0.00
  179                  0.00    145.20     59.45      0.00
  181                  0.00    145.21     59.45      0.00
  183                  0.00    145.21     58.15      0.00
  184                  0.00    143.78     55.37      0.00
  185                 34.88    144.44     55.65      0.00
  187                  0.00    145.19     57.50      0.00
  189                146.77    145.53     61.33      0.00
  191                111.38    145.48     52.20      0.00
  193                 96.98    145.58     55.28      0.00
  195                  0.00    145.65     56.39      0.00
  197                 23.17    145.49     53.07      0.00
  199                162.28    139.65     61.37      0.00
  201                 60.67    138.82     60.11      0.00
  203               4825.06    138.63     59.20      0.00
  204                  0.00    144.93     53.70      0.00
  205                 88.89    139.62     51.40      0.00
  206                  0.00    138.73     59.68      0.00
  207                 94.37    138.87     56.27      0.00
  208                  0.00    138.57     53.11      0.00
  209                  1.18    138.30     60.79      0.00
  211                 11.79    138.21     56.86      0.00
  213                 18.96    138.15     56.83      0.00
  215                125.38    137.95     56.74      0.00
  217                 32.94    137.93     57.17      0.00
  219                 56.20    137.92     58.03      0.00
  225                 31.01    137.92     56.30      0.00
  229                 87.28    138.08     55.28      0.00
  231                 22.41    138.08     57.66      0.00
  237                 21.23    138.21     53.82      0.00
  239                 60.67    138.23     54.26      0.00
  241                  0.00    138.23     54.26      0.00
  243                  5.90    138.23     53.83      0.00
  247                 95.72    138.24     52.10      0.00
  249                  0.00    138.24     52.10      0.00
  251                 32.86    138.27     46.91      0.00
  253                 74.15    138.54     44.43      0.00
  255                 54.93    138.59     48.35      0.00
  257                  0.00    151.56     58.30      0.00
  259                  0.00    151.11     54.64      0.00
  261                  0.00    149.49     64.78      0.00
  263                  0.00    149.33     64.70      0.00
  265                  0.00    147.20     63.78      0.00
  267                  0.00    145.61     53.99      0.00
  269                  0.00    145.94     63.23      0.00
  271                  0.00    145.29     60.35      0.00
  273                  0.00    139.62     57.03      0.00
  275                  0.00    138.85     55.83      0.00
  River           -13165.06    220.00      0.00      0.00  Reservoir
  Lake                 0.00    167.00      0.00      0.00  Reservoir
  1                  202.14    145.05      5.70      0.00  Tank
  2                 -414.12    139.71     10.06      0.00  Tank
  3                 2057.35    158.13     12.62      0.00  Tank
   
   
  Link Results at 0:10:00 hrs:
  ----------------------------------------------
                       Flow  Velocity  Headloss
  Link                  gpm       fps   /1000ft
  ----------------------------------------------
  20               -2057.35      0.09      0.00
  40                -202.14      0.01      0.00
  50                 414.12      0.02      0.00
  60               13165.06      9.34      8.94
  101                  0.00      0.00      0.00
  103                169.61      0.27      0.02
  105               -427.94      1.21      0.53
  107                 32.16      0.09      0.00
  109                -11.55      0.02      0.00
  111               -326.25      0.93      0.32
  112                503.67      1.43      0.71
  113                -84.32      0.24      0.03
  114                125.47      0.80      0.39
  115                -42.15      0.27      0.05
  116                 13.94      0.04      0.00
  117                644.20      1.83      1.12
  119               -742.15      2.11      1.46
  120               1172.98      3.33      3.41
  121               1052.18      2.98      2.78
  122                373.45      2.38      2.95
  123               9971.22      4.53      1.78
  125              13165.06      5.98      2.97
  129               2763.77      1.96      0.57
  131               2475.70      1.76      0.46
  133              -2057.35      2.10      0.80
  135                394.33      0.28      0.02
  137                 58.14      0.09      0.00
  145                336.19      2.15      2.43
  147                328.18      2.09      2.32
  149               -693.22      4.42      9.27
  151               -684.79      4.37      9.06
  153                378.44      1.07      0.42
  155                416.01      1.18      0.50
  159               -427.64      1.21      0.53
  161               -464.46      2.96      4.41
  163               -165.98      0.47      0.09
  169                226.05      1.44      1.16
  171                494.97      1.40      0.69
  173               8063.73      3.66      1.20
  175               7993.30      3.63      1.18
  177               7937.10      3.60      1.17
  179               7661.41      3.48      1.09
  180                  3.54      0.01      0.00
  181                  3.54      0.01      0.00
  183               7435.56      3.37      1.03
  185                -19.80      0.13      0.01
  186                353.39      2.26      2.66
  187               6804.49      3.09      0.88
  189               4971.87      2.26      0.49
  191              -1779.12      1.26      0.25
  193              -1664.40      1.18      0.22
  195                258.12      0.73      0.21
  197                179.01      0.51      0.10
  199                -23.13      0.07      0.00
  201               -202.14      0.57      0.13
  202                577.89      3.69      6.62
  203                259.38      1.66      1.50
  204                577.89      1.64      0.92
  205                353.39      1.00      0.37
  207                282.52      0.80      0.24
  209                169.06      1.08      0.68
  211                611.27      1.73      1.02
  213                184.32      0.52      0.11
  215                130.49      0.37      0.06
  217               -250.18      0.71      0.19
  219               -254.21      0.72      0.20
  221                254.21      1.62      1.45
  223                 45.53      0.13      0.01
  225                 68.70      0.19      0.02
  229               4971.87      3.53      1.45
  231               4710.06      3.34      1.31
  233               4825.06      3.42      1.60
  235                 99.53      0.28      0.04
  237                471.03      1.34      0.63
  238                318.49      0.90      0.30
  239                -58.17      0.17      0.01
  240                318.49      0.90      0.30
  241                318.49      0.90      0.30
  243                317.30      0.51      0.07
  245                295.75      0.47      0.07
  247                245.52      0.39      0.05
  249                120.14      0.19      0.01
  251                 56.20      0.12      0.01
  257                 31.01      0.09      0.00
  261                 31.27      0.20      0.03
  263                 22.41      0.06      0.00
  269                  9.76      0.03      0.00
  271                 78.43      0.50      0.16
  273                -89.89      0.26      0.03
  275                -52.75      0.15      0.01
  277                  5.90      0.02      0.00
  281                -58.66      0.24      0.03
  283                -97.81      0.28      0.03
  285                 23.61      0.07      0.00
  287               -177.99      0.73      0.25
  289                414.12      1.69      1.20
  291                 74.15      0.30      0.05
  293                107.05      0.68      0.29
  295                -74.19      0.21      0.02
  297                494.25      3.15      4.95
  299                237.46      1.52      1.27
  301                237.46      1.52      1.27
  303                256.79      1.64      1.47
  305                149.95      0.43      0.08
  307                406.74      1.15      0.48
  309                209.51      1.34      1.01
  311                -79.02      0.22      0.02
  313                467.86      1.33      0.62
  315              -1922.52      1.36      0.29
  317                117.50      0.75      0.35
  319                -17.97      0.05      0.00
  321               7645.06      3.47      1.09
  323               -175.67      0.50      0.10
  325                143.40      0.92      0.50
  329              13165.06      5.98      3.01
  330                  0.00      0.00      0.00
  333                 -0.00      0.00      0.00
  10                   0.00      0.00      0.00  Pump
  335              13165.06      0.00    -93.38  Pump
   
   
  Node Results at 0:15:00 hrs:
  --------------------------------------------------------
                     Demand      Head  Pressure  Chemical
  Node                  gpm        ft       psi      mg/L
  --------------------------------------------------------
  10                   0.00    144.96     -0.89      0.00
  15                 684.79    119.44     37.89      0.00
  20                   0.00    158.20     12.65      0.00
  35                1664.40    145.23     57.51      0.00
  40                   0.00    145.07      5.71      0.00
  50                   0.00    139.57      9.99      0.00
  60                   0.00    209.00     90.56      0.00
  601                  0.00    302.39    131.03      0.00
  61                   0.00    302.39    131.03      0.00
  101                258.33    144.96     44.61      0.00
  103                181.15    144.92     44.16      0.00
  105                184.10    146.29     51.04      0.00
  107                 74.31    146.29     53.85      0.00
  109                314.70    144.92     54.00      0.00
  111                193.04    145.56     58.74      0.00
  113                 27.21    145.60     62.22      0.00
  115                 70.86    146.39     57.36      0.00
  117                160.09    149.57     58.92      0.00
  119                239.54    157.28     67.28      0.00
  120                  0.00    154.79     67.07      0.00
  121                 56.62    160.84     70.56      0.00
  123                  0.00    165.30     66.86      0.00
  125                 62.02    160.31     64.70      0.00
  127                 24.02    158.82     44.55      0.00
  129                  0.00    158.81     46.71      0.00
  131                 58.14    158.78     66.20      0.00
  139                  8.01    152.13     52.48      0.00
  141                 13.40    147.37     62.12      0.00
  143                  8.43    134.39     60.18      0.00
  145                 37.58    148.84     64.06      0.00
  147                 11.63    149.93     56.95      0.00
  149                 36.82    150.40     58.23      0.00
  151                196.49    154.90     52.60      0.00
  153                 60.07    155.00     38.48      0.00
  157                 70.43    154.78     61.39      0.00
  159                 56.20    151.34     62.97      0.00
  161                 21.49    149.00     62.83      0.00
  163                 12.81    148.53     62.19      0.00
  164                  0.00    148.53     62.19      0.00
  166                  3.54    148.53     65.23      0.00
  167                 19.80    146.61     65.69      0.00
  169                  0.00    146.62     65.69      0.00
  171                 53.50    145.50     64.78      0.00
  173                  0.00    145.48     64.77      0.00
  177                 79.11    145.23     59.46      0.00
  179                  0.00    145.22     59.46      0.00
  181                  0.00    145.23     59.46      0.00
  183                  0.00    145.23     58.16      0.00
  184                  0.00    143.79     55.37      0.00
  185                 34.88    144.46     55.66      0.00
  187                  0.00    145.22     57.51      0.00
  189                146.77    145.56     61.34      0.00
  191                111.38    145.50     52.21      0.00
  193                 96.98    145.60     55.29      0.00
  195                  0.00    145.67     56.40      0.00
  197                 23.17    145.51     53.08      0.00
  199                162.28    139.64     61.37      0.00
  201                 60.67    138.81     60.10      0.00
  203               4825.06    138.62     59.20      0.00
  204                  0.00    144.95     53.71      0.00
  205                 88.89    139.62     51.40      0.00
  206                  0.00    138.71     59.67      0.00
  207                 94.37    138.85     56.27      0.00
  208                  0.00    138.54     53.10      0.00
  209                  1.18    138.26     60.77      0.00
  211                 11.79    138.16     56.83      0.00
  213                 18.96    138.10     56.80      0.00
  215                125.38    137.90     56.72      0.00
  217                 32.94    137.88     57.14      0.00
  219                 56.20    137.86     58.00      0.00
  225                 31.01    137.87     56.27      0.00
  229                 87.28    138.03     55.26      0.00
  231                 22.41    138.02     57.64      0.00
  237                 21.23    138.16     53.80      0.00
  239                 60.67    138.17     54.24      0.00
  241                  0.00    138.17     54.24      0.00
  243                  5.90    138.17     53.80      0.00
  247                 95.72    138.18     52.07      0.00
  249                  0.00    138.18     52.07      0.00
  251                 32.86    138.21     46.89      0.00
  253                 74.15    138.45     44.39      0.00
  255                 54.93    138.51     48.32      0.00
  257                  0.00    151.59     58.32      0.00
  259                  0.00    151.14     54.66      0.00
  261                  0.00    149.52     64.79      0.00
  263                  0.00    149.36     64.72      0.00
  265                  0.00    147.23     63.79      0.00
  267                  0.00    145.63     54.00      0.00
  269                  0.00    145.96     63.24      0.00
  271                  0.00    145.31     60.36      0.00
  273                  0.00    139.62     57.03      0.00
  275                  0.00    138.84     55.83      0.00
  River           -13163.57    220.00      0.00      0.00  Reservoir
  Lake                 0.00    167.00      0.00      0.00  Reservoir
  1                  199.61    145.07      5.71      0.00  Tank
  2                 -403.10    139.57      9.99      0.00  Tank
  3                 2047.38    158.20     12.65      0.00  Tank
   
   
  Link Results at 0:15:00 hrs:
  ----------------------------------------------
                       Flow  Velocity  Headloss
  Link                  gpm       fps   /1000ft
  ----------------------------------------------
  20               -2047.38      0.09      0.00
  40                -199.61      0.01      0.00
  50                 403.10      0.02      0.00
  60               13163.57      9.34      8.93
  101                  0.00      0.00      0.00
  103                169.88      0.27      0.02
  105               -428.21      1.21      0.53
  107                 32.33      0.09      0.00
  109                -11.27      0.02      0.00
  111               -325.97      0.92      0.32
  112                504.29      1.43      0.71
  113                -83.84      0.24      0.03
  114                125.67      0.80      0.39
  115                -41.98      0.27      0.05
  116                 14.61      0.04      0.00
  117                644.65      1.83      1.12
  119               -742.79      2.11      1.46
  120               1173.79      3.33      3.41
  121               1052.93      2.99      2.79
  122                373.73      2.39      2.95
  123               9979.12      4.53      1.78
  125              13163.57      5.97      2.97
  129               2754.10      1.95      0.57
  131               2465.90      1.75      0.46
  133              -2047.38      2.09      0.79
  135                394.51      0.28      0.02
  137                 58.14      0.09      0.00
  145                336.37      2.15      2.43
  147                328.36      2.10      2.32
  149               -693.22      4.42      9.27
  151               -684.79      4.37      9.06
  153                378.26      1.07      0.42
  155                415.84      1.18      0.50
  159               -427.47      1.21      0.53
  161               -464.28      2.96      4.41
  163               -166.11      0.47      0.09
  169                226.18      1.44      1.16
  171                494.66      1.40      0.69
  173               8071.13      3.66      1.20
  175               8000.69      3.63      1.18
  177               7944.50      3.61      1.17
  179               7668.67      3.48      1.09
  180                  3.54      0.01      0.00
  181                  3.54      0.01      0.00
  183               7442.77      3.38      1.03
  185                -19.80      0.13      0.01
  186                354.17      2.26      2.67
  187               6811.56      3.09      0.88
  189               4981.58      2.26      0.49
  191              -1776.48      1.26      0.25
  193              -1664.40      1.18      0.22
  195                255.65      0.73      0.20
  197                176.54      0.50      0.10
  199                -23.08      0.07      0.00
  201               -199.61      0.57      0.13
  202                579.19      3.70      6.64
  203                259.90      1.66      1.51
  204                579.19      1.64      0.92
  205                354.17      1.00      0.37
  207                282.98      0.80      0.24
  209                169.26      1.08      0.68
  211                611.41      1.73      1.02
  213                184.91      0.52      0.11
  215                131.17      0.37      0.06
  217               -250.35      0.71      0.19
  219               -254.34      0.72      0.20
  221                254.34      1.62      1.45
  223                 45.94      0.13      0.01
  225                 69.12      0.20      0.02
  229               4981.58      3.53      1.46
  231               4717.88      3.35      1.32
  233               4825.06      3.42      1.60
  235                101.42      0.29      0.04
  237                473.89      1.34      0.64
  238                329.50      0.93      0.32
  239                -50.01      0.14      0.01
  240                329.50      0.93      0.32
  241                329.50      0.93      0.32
  243                328.32      0.52      0.08
  245                296.15      0.47      0.07
  247                245.52      0.39      0.05
  249                120.14      0.19      0.01
  251                 56.20      0.12      0.01
  257                 31.01      0.09      0.00
  261                 31.67      0.20      0.03
  263                 22.41      0.06      0.00
  269                 20.38      0.06      0.00
  271                 78.03      0.50      0.16
  273                -78.88      0.22      0.02
  275                -48.63      0.14      0.01
  277                  5.90      0.02      0.00
  281                -54.53      0.22      0.03
  283                -90.92      0.26      0.03
  285                 20.77      0.06      0.00
  287               -171.02      0.70      0.23
  289                403.10      1.65      1.15
  291                 74.15      0.30      0.05
  293                103.01      0.66      0.27
  295                -70.15      0.20      0.02
  297                494.60      3.16      4.96
  299                237.62      1.52      1.28
  301                237.62      1.52      1.28
  303                256.97      1.64      1.47
  305                150.05      0.43      0.08
  307                407.03      1.15      0.48
  309                209.55      1.34      1.01
  311                -78.38      0.22      0.02
  313                467.84      1.33      0.62
  315              -1920.05      1.36      0.29
  317                117.83      0.75      0.35
  319                -16.42      0.05      0.00
  321               7652.32      3.47      1.09
  323               -167.85      0.48      0.09
  325                143.56      0.92      0.50
  329              13163.57      5.97      3.01
  330                  0.00      0.00      0.00
  333                 -0.00      0.00      0.00
  10                   0.00      0.00      0.00  Pump
  335              13163.57      0.00    -93.39  Pump
   
   
  Node Results at 0:20:00 hrs:
  --------------------------------------------------------
                     Demand      Head  Pressure  Chemical
  Node                  gpm        ft       psi      mg/L
  --------------------------------------------------------
  10                   0.00    144.98     -0.88      0.00
  15                 684.79    119.49     37.91      0.00
  20                   0.00    158.26     12.68      0.00
  35                1664.40    145.25     57.52      0.00
  40                   0.00    145.10      5.72      0.00
  50                   0.00    139.43      9.93      0.00
  60                   0.00    209.00     90.56      0.00
  601                  0.00    302.41    131.03      0.00
  61                   0.00    302.41    131.03      0.00
  101                258.33    144.98     44.62      0.00
  103                181.15    144.95     44.17      0.00
  105                184.10    146.32     51.05      0.00
  107                 74.31    146.31     53.86      0.00
  109                314.70    144.95     54.01      0.00
  111                193.04    145.58     58.75      0.00
  113                 27.21    145.63     62.23      0.00
  115                 70.86    146.41     57.37      0.00
  117                160.09    149.60     58.93      0.00
  119                239.54    157.32     67.30      0.00
  120                  0.00    154.82     67.09      0.00
  121                 56.62    160.88     70.58      0.00
  123                  0.00    165.34     66.88      0.00
  125                 62.02    160.36     64.72      0.00
  127                 24.02    158.88     44.58      0.00
  129                  0.00    158.86     46.74      0.00
  131                 58.14    158.84     66.23      0.00
  139                  8.01    152.18     52.51      0.00
  141                 13.40    147.41     62.14      0.00
  143                  8.43    134.44     60.20      0.00
  145                 37.58    148.88     64.08      0.00
  147                 11.63    149.98     56.97      0.00
  149                 36.82    150.44     58.25      0.00
  151                196.49    154.94     52.62      0.00
  153                 60.07    155.05     38.50      0.00
  157                 70.43    154.81     61.40      0.00
  159                 56.20    151.37     62.99      0.00
  161                 21.49    149.03     62.84      0.00
  163                 12.81    148.56     62.20      0.00
  164                  0.00    148.56     62.20      0.00
  166                  3.54    148.56     65.24      0.00
  167                 19.80    146.64     65.70      0.00
  169                  0.00    146.64     65.70      0.00
  171                 53.50    145.52     64.79      0.00
  173                  0.00    145.49     64.78      0.00
  177                 79.11    145.25     59.47      0.00
  179                  0.00    145.25     59.47      0.00
  181                  0.00    145.25     59.47      0.00
  183                  0.00    145.25     58.17      0.00
  184                  0.00    143.81     55.38      0.00
  185                 34.88    144.47     55.67      0.00
  187                  0.00    145.24     57.51      0.00
  189                146.77    145.58     61.35      0.00
  191                111.38    145.52     52.22      0.00
  193                 96.98    145.62     55.30      0.00
  195                  0.00    145.70     56.41      0.00
  197                 23.17    145.53     53.09      0.00
  199                162.28    139.64     61.37      0.00
  201                 60.67    138.81     60.10      0.00
  203               4825.06    138.62     59.20      0.00
  204                  0.00    144.97     53.72      0.00
  205                 88.89    139.62     51.40      0.00
  206                  0.00    138.69     59.66      0.00
  207                 94.37    138.84     56.26      0.00
  208                  0.00    138.51     53.09      0.00
  209                  1.18    138.21     60.75      0.00
  211                 11.79    138.11     56.81      0.00
  213                 18.96    138.04     56.78      0.00
  215                125.38    137.84     56.69      0.00
  217                 32.94    137.82     57.12      0.00
  219                 56.20    137.81     57.98      0.00
  225                 31.01    137.82     56.25      0.00
  229                 87.28    137.97     55.23      0.00
  231                 22.41    137.97     57.62      0.00
  237                 21.23    138.10     53.77      0.00
  239                 60.67    138.11     54.21      0.00
  241                  0.00    138.11     54.21      0.00
  243                  5.90    138.11     53.78      0.00
  247                 95.72    138.12     52.05      0.00
  249                  0.00    138.12     52.05      0.00
  251                 32.86    138.14     46.86      0.00
  253                 74.15    138.37     44.36      0.00
  255                 54.93    138.42     48.28      0.00
  257                  0.00    151.62     58.33      0.00
  259                  0.00    151.17     54.67      0.00
  261                  0.00    149.55     64.80      0.00
  263                  0.00    149.39     64.73      0.00
  265                  0.00    147.25     63.80      0.00
  267                  0.00    145.65     54.01      0.00
  269                  0.00    145.98     63.25      0.00
  271                  0.00    145.33     60.37      0.00
  273                  0.00    139.61     57.03      0.00
  275                  0.00    138.83     55.82      0.00
  River           -13162.09    220.00      0.00      0.00  Reservoir
  Lake                 0.00    167.00      0.00      0.00  Reservoir
  1                  197.26    145.10      5.72      0.00  Tank
  2                 -392.32    139.43      9.93      0.00  Tank
  3                 2037.47    158.26     12.68      0.00  Tank
   
   
  Link Results at 0:20:00 hrs:
  ----------------------------------------------
                       Flow  Velocity  Headloss
  Link                  gpm       fps   /1000ft
  ----------------------------------------------
  20               -2037.47      0.08      0.00
  40                -197.26      0.01      0.00
  50                 392.32      0.02      0.00
  60               13162.09      9.33      8.93
  101                  0.00      0.00      0.00
  103                170.16      0.27      0.02
  105               -428.49      1.22      0.53
  107                 32.51      0.09      0.00
  109                -11.00      0.02      0.00
  111               -325.70      0.92      0.32
  112                504.90      1.43      0.71
  113                -83.38      0.24      0.03
  114                125.87      0.80      0.39
  115                -41.80      0.27      0.05
  116                 15.28      0.04      0.00
  117                645.10      1.83      1.13
  119               -743.42      2.11      1.46
  120               1174.59      3.33      3.41
  121               1053.66      2.99      2.79
  122                374.01      2.39      2.96
  123               9986.96      4.53      1.78
  125              13162.09      5.97      2.97
  129               2744.50      1.95      0.56
  131               2456.17      1.74      0.46
  133              -2037.47      2.08      0.79
  135                394.68      0.28      0.02
  137                 58.14      0.09      0.00
  145                336.54      2.15      2.43
  147                328.53      2.10      2.32
  149               -693.22      4.42      9.27
  151               -684.79      4.37      9.06
  153                378.09      1.07      0.42
  155                415.66      1.18      0.50
  159               -427.29      1.21      0.52
  161               -464.11      2.96      4.41
  163               -166.24      0.47      0.09
  169                226.31      1.44      1.17
  171                494.36      1.40      0.69
  173               8078.47      3.67      1.20
  175               8008.04      3.63      1.18
  177               7951.84      3.61      1.17
  179               7675.88      3.48      1.10
  180                  3.54      0.01      0.00
  181                  3.54      0.01      0.00
  183               7449.93      3.38      1.04
  185                -19.80      0.13      0.01
  186                354.95      2.27      2.68
  187               6818.58      3.09      0.88
  189               4991.08      2.27      0.49
  191              -1773.99      1.26      0.25
  193              -1664.40      1.18      0.22
  195                253.32      0.72      0.20
  197                174.21      0.49      0.10
  199                -23.05      0.07      0.00
  201               -197.26      0.56      0.13
  202                580.47      3.71      6.67
  203                260.41      1.66      1.51
  204                580.47      1.65      0.93
  205                354.95      1.01      0.37
  207                283.45      0.80      0.25
  209                169.45      1.08      0.68
  211                611.55      1.73      1.02
  213                185.50      0.53      0.11
  215                131.85      0.37      0.06
  217               -250.52      0.71      0.20
  219               -254.48      0.72      0.20
  221                254.48      1.62      1.45
  223                 46.36      0.13      0.01
  225                 69.53      0.20      0.02
  229               4991.08      3.54      1.46
  231               4725.68      3.35      1.32
  233               4825.06      3.42      1.60
  235                103.12      0.29      0.04
  237                476.53      1.35      0.64
  238                340.28      0.97      0.34
  239                -41.88      0.12      0.01
  240                340.28      0.97      0.34
  241                340.28      0.97      0.34
  243                339.10      0.54      0.08
  245                296.73      0.47      0.07
  247                245.52      0.39      0.05
  249                120.14      0.19      0.01
  251                 56.20      0.12      0.01
  257                 31.01      0.09      0.00
  261                 32.26      0.21      0.03
  263                 22.41      0.06      0.00
  269                 30.57      0.09      0.00
  271                 77.44      0.49      0.16
  273                -68.10      0.19      0.02
  275                -44.59      0.13      0.01
  277                  5.90      0.02      0.00
  281                -50.49      0.21      0.02
  283                -84.17      0.24      0.03
  285                 17.98      0.05      0.00
  287               -164.19      0.67      0.22
  289                392.32      1.60      1.09
  291                 74.15      0.30      0.05
  293                 99.05      0.63      0.25
  295                -66.19      0.19      0.02
  297                494.94      3.16      4.97
  299                237.79      1.52      1.28
  301                237.79      1.52      1.28
  303                257.15      1.64      1.48
  305                150.15      0.43      0.08
  307                407.31      1.16      0.48
  309                209.60      1.34      1.01
  311                -77.75      0.22      0.02
  313                467.83      1.33      0.62
  315              -1917.72      1.36      0.29
  317                118.17      0.75      0.35
  319                -15.05      0.04      0.00
  321               7659.53      3.48      1.09
  323               -160.05      0.45      0.09
  325                143.73      0.92      0.50
  329              13162.09      5.97      3.01
  330                  0.00      0.00      0.00
  333                 -0.00      0.00      0.00
  10                   0.00      0.00      0.00  Pump
  335              13162.09      0.00    -93.41  Pump
   
   
  Node Results at 0:25:00 hrs:
  --------------------------------------------------------
                     Demand      Head  Pressure  Chemical
  Node                  gpm        ft       psi      mg/L
  --------------------------------------------------------
  10                   0.00    145.00     -0.87      0.00
  15                 684.79    119.54     37.93      0.00
  20                   0.00    158.33     12.71      0.00
  35                1664.40    145.27     57.53      0.00
  40                   0.00    145.12      5.73      0.00
  50                   0.00    139.29      9.88      0.00
  60                   0.00    209.01     90.56      0.00
  601                  0.00    302.43    131.04      0.00
  61                   0.00    302.43    131.04      0.00
  101                258.33    145.00     44.63      0.00
  103                181.15    144.97     44.18      0.00
  105                184.10    146.34     51.06      0.00
  107                 74.31    146.34     53.88      0.00
  109                314.70    144.97     54.02      0.00
  111                193.04    145.61     58.76      0.00
  113                 27.21    145.65     62.24      0.00
  115                 70.86    146.44     57.38      0.00
  117                160.09    149.63     58.94      0.00
  119                239.54    157.36     67.32      0.00
  120                  0.00    154.86     67.10      0.00
  121                 56.62    160.93     70.60      0.00
  123                  0.00    165.39     66.90      0.00
  125                 62.02    160.41     64.74      0.00
  127                 24.02    158.94     44.60      0.00
  129                  0.00    158.92     46.76      0.00
  131                 58.14    158.90     66.25      0.00
  139                  8.01    152.23     52.53      0.00
  141                 13.40    147.46     62.16      0.00
  143                  8.43    134.49     60.22      0.00
  145                 37.58    148.93     64.10      0.00
  147                 11.63    150.03     56.99      0.00
  149                 36.82    150.49     58.27      0.00
  151                196.49    154.98     52.64      0.00
  153                 60.07    155.09     38.52      0.00
  157                 70.43    154.85     61.42      0.00
  159                 56.20    151.40     63.00      0.00
  161                 21.49    149.05     62.85      0.00
  163                 12.81    148.58     62.21      0.00
  164                  0.00    148.58     62.21      0.00
  166                  3.54    148.58     65.25      0.00
  167                 19.80    146.66     65.71      0.00
  169                  0.00    146.66     65.71      0.00
  171                 53.50    145.54     64.80      0.00
  173                  0.00    145.51     64.78      0.00
  177                 79.11    145.27     59.48      0.00
  179                  0.00    145.27     59.48      0.00
  181                  0.00    145.27     59.48      0.00
  183                  0.00    145.27     58.18      0.00
  184                  0.00    143.82     55.39      0.00
  185                 34.88    144.49     55.68      0.00
  187                  0.00    145.26     57.52      0.00
  189                146.77    145.60     61.35      0.00
  191                111.38    145.54     52.23      0.00
  193                 96.98    145.65     55.31      0.00
  195                  0.00    145.72     56.42      0.00
  197                 23.17    145.55     53.10      0.00
  199                162.28    139.64     61.37      0.00
  201                 60.67    138.81     60.10      0.00
  203               4825.06    138.61     59.19      0.00
  204                  0.00    144.99     53.72      0.00
  205                 88.89    139.61     51.40      0.00
  206                  0.00    138.67     59.65      0.00
  207                 94.37    138.84     56.26      0.00
  208                  0.00    138.49     53.07      0.00
[...]
  219                 77.27    137.34     57.78      0.00
  225                 42.64    137.35     56.05      0.00
  229                120.02    137.60     55.07      0.00
  231                 30.82    137.59     57.45      0.00
  237                 29.19    137.80     53.64      0.00
  239                 83.42    137.80     54.08      0.00
  241                  0.00    137.80     54.08      0.00
  243                  8.12    137.80     53.64      0.00
  247                131.61    137.81     51.91      0.00
  249                  0.00    137.81     51.91      0.00
  251                 45.18    137.83     46.72      0.00
  253                101.95    138.08     44.23      0.00
  255                 75.53    138.18     48.17      0.00
  257                  0.00    150.82     57.98      0.00
  259                  0.00    150.32     54.30      0.00
  261                  0.00    148.53     64.36      0.00
  263                  0.00    148.33     64.27      0.00
  265                  0.00    148.01     64.13      0.00
  267                  0.00    146.10     54.20      0.00
  269                  0.00    146.74     63.58      0.00
  271                  0.00    146.40     60.84      0.00
  273                  0.00    140.45     57.39      0.00
  275                  0.00    139.72     56.21      0.00
  River           -13212.12    220.00      0.00      0.00  Reservoir
  Lake                 0.00    167.00      0.00      0.00  Reservoir
  1                 -760.03    148.19      7.06      0.00  Tank
  2                 -471.40    139.59     10.01      0.00  Tank
  3                  290.61    160.37     13.59      0.00  Tank
   
   
  Link Results at 23:55:00 hrs:
  ----------------------------------------------
                       Flow  Velocity  Headloss
  Link                  gpm       fps   /1000ft
  ----------------------------------------------
  20                -290.61      0.01      0.00
  40                 760.03      0.03      0.00
  50                 471.40      0.02      0.00
  60               13212.12      9.37      9.00
  101                  0.00      0.00      0.00
  103                115.98      0.19      0.01
  105               -471.19      1.34      0.63
  107                -26.67      0.08      0.00
  109               -133.10      0.21      0.01
  111               -565.82      1.61      0.88
  112                421.78      1.20      0.51
  113               -246.75      0.70      0.19
  114                 71.42      0.46      0.14
  115               -128.84      0.82      0.41
  116               -212.74      0.60      0.14
  117                697.67      1.98      1.30
  119               -719.48      2.04      1.38
  120               1258.03      3.57      3.88
  121               1113.47      3.16      3.09
  122                379.23      2.42      3.03
  123               9711.22      4.41      1.69
  125              11126.13      5.05      2.18
  129                957.82      0.68      0.08
  131                658.69      0.47      0.04
  133               -290.61      0.30      0.02
  135                335.06      0.24      0.01
  137                 79.94      0.13      0.01
  145                255.11      1.63      1.46
  147                244.10      1.56      1.34
  149               -359.94      2.30      2.75
  151               -348.35      2.22      2.59
  153                134.26      0.38      0.06
  155                185.93      0.53      0.11
  159               -201.92      0.57      0.13
  161               -252.54      1.61      1.43
  163               -131.26      0.37      0.06
  169                213.86      1.37      1.05
  171                391.46      1.11      0.45
  173               7732.38      3.51      1.11
  175               7635.53      3.47      1.08
  177               7558.26      3.43      1.06
  179               7248.84      3.29      0.98
  180                  4.86      0.01      0.00
  181                  4.86      0.01      0.00
  183               6995.08      3.17      0.92
  185                -27.23      0.17      0.02
  186                259.98      1.66      1.51
  187               6322.65      2.87      0.76
  189               5035.74      2.29      0.50
  191              -1213.34      0.86      0.12
  193              -1519.24      1.08      0.19
  195               -204.81      0.58      0.13
  197               -313.59      0.89      0.30
  199                446.44      1.27      0.57
  201                760.03      2.16      1.52
  202                558.11      3.56      6.20
  203                346.10      2.21      2.56
  204                558.11      1.58      0.86
  205                259.98      0.74      0.21
  207               -100.34      0.28      0.04
  209                273.85      1.75      1.66
  211                645.20      1.83      1.13
  213                -13.87      0.04      0.00
  215               -168.80      0.48      0.09
  217               -333.86      0.95      0.33
  219               -279.88      0.79      0.24
  221                279.88      1.79      1.73
  223               -194.58      0.55      0.12
  225               -162.71      0.46      0.09
  229               5035.74      3.57      1.49
  231               4633.09      3.29      1.27
  233               4499.39      3.19      1.40
  235                179.53      0.51      0.11
  237                501.44      1.42      0.71
  238                535.93      1.52      0.80
  239                164.25      0.47      0.09
  240                535.93      1.52      0.80
  241                535.93      1.52      0.80
  243                534.31      0.85      0.20
  245                414.47      0.66      0.12
  247                337.59      0.54      0.08
  249                165.20      0.26      0.02
  251                 77.27      0.16      0.01
  257                 42.64      0.12      0.01
  261                 50.81      0.32      0.07
  263                 30.82      0.09      0.00
  269                103.63      0.29      0.04
  271                100.03      0.64      0.26
  273                -25.59      0.07      0.00
  275                -35.84      0.10      0.01
  277                  8.12      0.02      0.00
  281                -43.95      0.18      0.02
  283                -73.17      0.21      0.02
  285                  7.17      0.02      0.00
  287               -182.74      0.75      0.26
  289                471.40      1.93      1.53
  291                101.95      0.42      0.09
  293                111.18      0.71      0.31
  295                -66.00      0.19      0.02
  297                523.79      3.34      5.51
  299                252.00      1.61      1.42
  301                252.00      1.61      1.42
  303                271.79      1.73      1.64
  305                173.88      0.49      0.10
  307                445.67      1.26      0.57
  309                231.28      1.48      1.21
  311               -400.08      1.13      0.46
  313                544.11      1.54      0.82
  315              -1314.43      0.93      0.14
  317                113.98      0.73      0.33
  319                 65.55      0.19      0.02
  321               7226.36      3.28      0.98
  323                 50.28      0.14      0.01
  325                101.09      0.65      0.26
  329              13212.12      6.00      3.03
  330                  0.00      0.00      0.00
  333                 -0.00      0.00      0.00
  10                   0.00      0.00      0.00  Pump
  335              13212.12      0.00    -92.96  Pump
   
   
  Node Results at 24:00:00 hrs:
  --------------------------------------------------------
                     Demand      Head  Pressure  Chemical
  Node                  gpm        ft       psi      mg/L
  --------------------------------------------------------
  10                   0.00    147.62      0.27      0.00
  15                 684.79    121.76     38.89     57.82
  20                   0.00    160.38     13.60      0.00
  35                1664.40    148.02     58.72      0.00
  40                   0.00    148.10      7.02      0.00
  50                   0.00    139.43      9.94      0.00
  60                   0.00    209.12     90.61      0.00
  601                  0.00    303.19    131.37      0.00
  61                   0.00    303.19    131.37      0.00
  101                258.33    147.62     45.77      0.00
  103                181.15    147.59     45.32      0.00
  105                184.10    148.93     52.18      0.00
  107                 74.31    148.93     55.00      0.00
  109                314.70    147.59     55.16      0.00
  111                193.04    148.24     59.90      0.00
  113                 27.21    148.30     63.39      0.00
  115                 70.86    149.04     58.51      0.00
  117                160.09    152.14     60.03      0.00
  119                239.54    159.67     68.32      0.00
  120                  0.00    157.24     68.13      0.00
  121                 56.62    163.15     71.56      0.00
  123                  0.00    167.56     67.84      0.00
  125                 62.02    162.60     65.69      0.00
  127                 24.02    161.04     45.51      0.00
  129                  0.00    161.02     47.67     90.00
  131                 58.14    161.00     67.16      0.00
  139                  8.01    154.40     53.47     90.00
  141                 13.40    149.68     63.12     58.06
  143                  8.43    136.71     61.19     57.96
  145                 37.58    151.16     65.07      0.00
  147                 11.63    152.27     57.96      0.00
  149                 36.82    152.73     59.25      0.00
  151                196.49    157.26     53.63      0.00
  153                 60.07    157.37     39.50      0.00
  157                 70.43    157.24     62.46      0.00
  159                 56.20    153.89     64.08      0.00
  161                 21.49    151.63     63.97      0.00
  163                 12.81    151.17     63.33      0.00
  164                  0.00    151.17     63.33      0.00
  166                  3.54    151.17     66.37      0.00
  167                 19.80    149.30     66.86      0.00
  169                  0.00    149.31     66.86      0.00
  171                 53.50    148.22     65.96      0.00
  173                  0.00    148.19     65.95      0.00
  177                 79.11    148.03     60.67      0.00
  179                  0.00    148.03     60.67      0.00
  181                  0.00    148.03     60.67      0.00
  183                  0.00    148.03     59.37      0.00
  184                  0.00    146.43     56.52      0.00
  185                 34.88    147.15     56.83      0.00
  187                  0.00    147.92     58.68      0.00
  189                146.77    148.28     62.52      0.00
  191                111.38    148.19     53.38      0.00
  193                 96.98    148.30     56.46      0.00
  195                  0.00    148.37     57.57      0.00
  197                 23.17    148.20     54.25      0.00
  199                162.28    141.98     62.39      0.00
  201                 60.67    141.10     61.09      0.00
  203               4825.06    140.90     60.19      0.00
  204                  0.00    147.65     54.88      0.00
  205                 88.89    141.94     52.40      0.00
  206                  0.00    140.69     60.53      0.00
  207                 94.37    141.04     57.21      0.00
  208                  0.00    140.29     53.86      0.00
  209                  1.18    139.61     61.36      0.00
  211                 11.79    139.37     57.36      0.00
  213                 18.96    139.30     57.32      0.00
  215                125.38    139.10     57.24      0.00
  217                 32.94    139.08     57.66      0.00
  219                 56.20    139.07     58.52      0.00
  225                 31.01    139.07     56.79      0.00
  229                 87.28    139.08     55.71      0.00
  231                 22.41    139.07     58.09      0.00
  237                 21.23    139.13     54.22      0.00
  239                 60.67    139.10     54.64      0.00
  241                  0.00    139.10     54.64      0.00
  243                  5.90    139.10     54.21      0.00
  247                 95.72    139.10     52.47      0.00
  249                  0.00    139.10     52.47      0.00
  251                 32.86    139.10     47.27      0.00
  253                 74.15    139.08     44.66      0.00
  255                 54.93    139.13     48.59      0.00
  257                  0.00    154.11     59.41      0.00
  259                  0.00    153.67     55.75      0.00
  261                  0.00    152.09     65.90      0.00
  263                  0.00    151.93     65.83      0.00
  265                  0.00    149.90     64.95      0.00
  267                  0.00    148.34     55.18      0.00
  269                  0.00    148.67     64.42      0.00
  271                  0.00    148.08     61.56      0.00
  273                  0.00    141.94     58.03      0.00
  275                  0.00    141.10     56.80      0.00
  River           -13087.17    220.00      0.00      0.00  Reservoir
  Lake                 0.00    167.00      0.00      0.00  Reservoir
  1                 -138.09    148.10      7.02      0.00  Tank
  2                 -204.25    139.43      9.94      0.00  Tank
  3                 2109.83    160.38     13.60      0.00  Tank
   
   
  Link Results at 24:00:00 hrs:
  ----------------------------------------------
                       Flow  Velocity  Headloss
  Link                  gpm       fps   /1000ft
  ----------------------------------------------
  20               -2109.83      0.09      0.00
  40                 138.09      0.01      0.00
  50                 204.25      0.01      0.00
  60               13087.17      9.28      8.84
  101                  0.00      0.00      0.00
  103                165.18      0.26      0.02
  105               -423.51      1.20      0.52
  107                 29.32      0.08      0.00
  109                -15.97      0.03      0.00
  111               -330.68      0.94      0.33
  112                493.83      1.40      0.69
  113                -93.40      0.26      0.03
  114                122.07      0.78      0.37
  115                -44.99      0.29      0.06
  116                  1.46      0.00      0.00
  117                636.93      1.81      1.10
  119               -731.75      2.08      1.42
  120               1159.75      3.29      3.34
  121               1040.16      2.95      2.73
  122                369.01      2.36      2.88
  123               9848.28      4.47      1.74
  125              13087.17      5.94      2.94
  129               2813.27      2.00      0.59
  131               2526.81      1.79      0.48
  133              -2109.83      2.15      0.84
  135                392.97      0.28      0.02
  137                 58.14      0.09      0.00
  145                334.83      2.14      2.41
  147                326.82      2.09      2.30
  149               -693.22      4.42      9.27
  151               -684.79      4.37      9.06
  153                379.80      1.08      0.42
  155                417.37      1.18      0.50
  159               -429.00      1.22      0.53
  161               -465.82      2.97      4.44
  163               -164.36      0.47      0.09
  169                224.44      1.43      1.15
  171                497.94      1.41      0.70
  173               7951.05      3.61      1.17
  175               7880.61      3.58      1.15
  177               7824.42      3.55      1.13
  179               7551.54      3.43      1.06
  180                  3.54      0.01      0.00
  181                  3.54      0.01      0.00
  183               7328.17      3.33      1.01
  185                -19.80      0.13      0.01
  186                357.83      2.28      2.72
  187               6710.71      3.05      0.85
  189               5156.97      2.34      0.52
  191              -1500.25      1.06      0.18
  193              -1664.40      1.18      0.22
  195                -27.25      0.08      0.00
  197               -106.36      0.30      0.04
  199                 31.73      0.09      0.00
  201                138.09      0.39      0.06
  202                602.66      3.85      7.15
  203                279.72      1.79      1.73
  204                602.66      1.71      0.99
  205                357.83      1.02      0.38
  207                247.99      0.70      0.19
  209                176.07      1.12      0.73
  211                597.66      1.70      0.98
  213                181.76      0.52      0.11
  215                110.08      0.31      0.04
  217               -252.81      0.72      0.20
  219               -251.39      0.71      0.20
  221                251.39      1.60      1.42
  223                 40.33      0.11      0.01
  225                 63.51      0.18      0.02
  229               5156.97      3.66      1.55
  231               4868.42      3.45      1.40
  233               4825.06      3.42      1.60
  235                126.27      0.36      0.05
  237                517.06      1.47      0.75
  238                528.36      1.50      0.78
  239                105.67      0.30      0.04
  240                528.36      1.50      0.78
  241                528.36      1.50      0.78
  243                527.18      0.84      0.19
  245                324.89      0.52      0.08
  247                245.52      0.39      0.05
  249                120.14      0.19      0.01
  251                 56.20      0.12      0.01
  257                 31.01      0.09      0.00
  261                 60.41      0.39      0.10
  263                 22.41      0.06      0.00
  269                190.49      0.54      0.12
  271                 49.28      0.31      0.07
  273                119.98      0.34      0.05
  275                 25.87      0.07      0.00
  277                  5.90      0.02      0.00
  281                 19.97      0.08      0.00
  283                 33.44      0.09      0.00
  285                -29.69      0.08      0.00
  287                -46.06      0.19      0.02
  289                204.25      0.83      0.33
  291                 74.15      0.30      0.05
  293                 29.11      0.19      0.03
  295                  3.75      0.01      0.00
  297                488.60      3.12      4.85
  299                234.75      1.50      1.25
  301                234.75      1.50      1.25
  303                253.86      1.62      1.44
  305                148.33      0.42      0.07
  307                402.18      1.14      0.47
  309                207.02      1.32      0.99
  311                -96.94      0.27      0.03
  313                460.75      1.31      0.60
  315              -1637.15      1.16      0.22
  317                122.98      0.78      0.38
  319                  3.29      0.01      0.00
  321               7535.19      3.42      1.06
  323                -17.31      0.05      0.00
  325                136.91      0.87      0.46
  329              13087.17      5.94      2.98
  330                  0.00      0.00      0.00
  333                 -0.00      0.00      0.00
  10                   0.00      0.00      0.00  Pump
  335              13087.17      0.00    -94.07  Pump
   
  Analysis ended Wed May 06 18:21:36 2020
