  Page 1                                    Wed May 06 16:50:28 2020

  ******************************************************************
  *                           E P A N E T                          *
  *                   Hydraulic and Water Quality                  *
  *                   Analysis for Pipe Networks                   *
  *                         Version 2.00.12                        *
  ******************************************************************
  
  Analysis begun Wed May 06 16:50:28 2020

   
  Hydraulic Status:
  -----------------------------------------------------------------------
     0:00:00: Balanced after 5 trials
     0:00:00: Reservoir River is emptying
     0:00:00: Reservoir Lake is closed
     0:00:00: Tank 1 is filling at 13.10 ft
     0:00:00: Tank 2 is emptying at 23.50 ft
     0:00:00: Tank 3 is filling at 29.00 ft
   
     0:05:00: Balanced after 2 trials
   
     0:10:00: Balanced after 2 trials
   
     0:15:00: Balanced after 2 trials
   
     0:20:00: Balanced after 2 trials
   
     0:25:00: Balanced after 2 trials
   
     0:30:00: Balanced after 2 trials
   
     0:35:00: Balanced after 2 trials
   
     0:40:00: Balanced after 2 trials
   
     0:45:00: Balanced after 2 trials
   
     0:50:00: Balanced after 2 trials
   
     0:55:00: Balanced after 2 trials
   
     1:00:00: Pump 10 changed by timer control
     1:00:00: Balanced after 7 trials
     1:00:00: Reservoir Lake is emptying
     1:00:00: Pump 10 changed from closed to open
   
     1:05:00: Balanced after 2 trials
   
     1:10:00: Balanced after 2 trials
   
     1:15:00: Balanced after 2 trials
   
     1:20:00: Balanced after 2 trials
   
     1:25:00: Balanced after 2 trials
   
     1:30:00: Balanced after 2 trials
   
     1:35:00: Balanced after 2 trials
   
     1:40:00: Balanced after 2 trials
   
     1:45:00: Balanced after 2 trials
   
     1:50:00: Balanced after 2 trials
   
     1:55:00: Balanced after 2 trials
   
     2:00:00: Balanced after 4 trials
     2:00:00: Tank 2 is filling at 20.49 ft
   
     2:05:00: Balanced after 1 trials
   
     2:10:00: Balanced after 1 trials
   
     2:15:00: Balanced after 1 trials
   
     2:20:00: Balanced after 1 trials
   
     2:25:00: Balanced after 1 trials
   
     2:30:00: Balanced after 1 trials
   
     2:35:00: Balanced after 1 trials
   
     2:40:00: Balanced after 1 trials
   
     2:45:00: Balanced after 1 trials
   
     2:50:00: Balanced after 1 trials
   
     2:55:00: Balanced after 1 trials
   
     3:00:00: Balanced after 2 trials
   
     3:05:00: Balanced after 1 trials
   
     3:10:00: Balanced after 1 trials
   
     3:15:00: Balanced after 1 trials
   
     3:20:00: Balanced after 1 trials
   
     3:25:00: Balanced after 1 trials
   
     3:30:00: Balanced after 1 trials
   
     3:35:00: Balanced after 1 trials
   
     3:40:00: Balanced after 1 trials
   
     3:45:00: Balanced after 1 trials
   
     3:50:00: Balanced after 1 trials
   
     3:55:00: Balanced after 1 trials
   
     4:00:00: Balanced after 3 trials
   
     4:05:00: Balanced after 1 trials
   
     4:10:00: Balanced after 1 trials
   
     4:15:00: Balanced after 1 trials
   
     4:20:00: Balanced after 1 trials
   
     4:25:00: Balanced after 1 trials
   
     4:30:00: Balanced after 1 trials
   
     4:32:38: Pump 335 changed by Tank 1 control
     4:32:38: Pipe 330 changed by Tank 1 control
     4:32:38: Balanced after 4 trials
     4:32:38: Pipe 330 changed from closed to open
     4:32:38: Pump 335 changed from open to closed
   
     4:35:00: Balanced after 1 trials
   
     4:40:00: Balanced after 2 trials
   
     4:45:00: Balanced after 2 trials
   
     4:50:00: Balanced after 2 trials
   
     4:55:00: Balanced after 2 trials
   
     5:00:00: Balanced after 3 trials
     5:00:00: Tank 3 is emptying at 34.46 ft
   
     5:05:00: Balanced after 2 trials
   
     5:10:00: Balanced after 2 trials
   
     5:15:00: Balanced after 2 trials
   
     5:20:00: Balanced after 2 trials
   
     5:25:00: Balanced after 2 trials
   
     5:30:00: Balanced after 2 trials
   
     5:35:00: Balanced after 2 trials
   
     5:40:00: Balanced after 2 trials
   
     5:45:00: Balanced after 2 trials
   
     5:50:00: Balanced after 2 trials
   
     5:55:00: Balanced after 2 trials
   
     6:00:00: Balanced after 3 trials
     6:00:00: Tank 3 is filling at 34.19 ft
   
     6:05:00: Balanced after 1 trials
   
     6:10:00: Balanced after 1 trials
   
     6:15:00: Balanced after 1 trials
   
     6:20:00: Balanced after 1 trials
   
     6:25:00: Balanced after 1 trials
   
     6:30:00: Balanced after 1 trials
   
     6:35:00: Balanced after 1 trials
   
     6:40:00: Balanced after 1 trials
   
     6:45:00: Balanced after 1 trials
   
     6:50:00: Balanced after 1 trials
   
     6:55:00: Balanced after 1 trials
   
     7:00:00: Balanced after 3 trials
   
     7:05:00: Balanced after 1 trials
   
     7:10:00: Balanced after 1 trials
   
     7:15:00: Balanced after 1 trials
   
     7:20:00: Balanced after 1 trials
   
     7:25:00: Balanced after 1 trials
   
     7:30:00: Balanced after 1 trials
   
     7:35:00: Balanced after 1 trials
   
     7:40:00: Balanced after 1 trials
   
     7:45:00: Balanced after 1 trials
   
     7:50:00: Balanced after 1 trials
   
     7:55:00: Balanced after 1 trials
   
     8:00:00: Balanced after 3 trials
   
     8:05:00: Balanced after 1 trials
   
     8:10:00: Balanced after 1 trials
   
     8:15:00: Balanced after 1 trials
   
     8:20:00: Balanced after 1 trials
   
     8:25:00: Balanced after 1 trials
   
     8:30:00: Balanced after 1 trials
   
     8:35:00: Balanced after 1 trials
   
     8:40:00: Balanced after 1 trials
   
     8:45:00: Balanced after 1 trials
   
     8:50:00: Balanced after 1 trials
   
     8:55:00: Balanced after 1 trials
   
     9:00:00: Balanced after 4 trials
     9:00:00: Tank 3 is emptying at 34.99 ft
   
     9:05:00: Balanced after 2 trials
   
     9:10:00: Balanced after 2 trials
   
     9:15:00: Balanced after 2 trials
   
     9:20:00: Balanced after 2 trials
   
     9:25:00: Balanced after 2 trials
   
     9:30:00: Balanced after 2 trials
   
     9:35:00: Balanced after 2 trials
   
     9:40:00: Balanced after 2 trials
   
     9:45:00: Balanced after 2 trials
   
     9:50:00: Balanced after 2 trials
   
     9:55:00: Balanced after 2 trials
   
    10:00:00: Balanced after 3 trials
    10:00:00: Tank 1 is emptying at 21.93 ft
   
    10:05:00: Balanced after 1 trials
   
    10:10:00: Balanced after 1 trials
   
    10:15:00: Balanced after 1 trials
    10:15:00: Tank 2 is closed at 26.71 ft
   
    10:20:00: Balanced after 1 trials
    10:20:00: Tank 2 is emptying at 26.71 ft
   
    10:25:00: Balanced after 1 trials
   
    10:30:00: Balanced after 1 trials
   
    10:35:00: Balanced after 1 trials
   
    10:40:00: Balanced after 1 trials
   
    10:45:00: Balanced after 1 trials
   
    10:50:00: Balanced after 1 trials
   
    10:55:00: Balanced after 1 trials
   
    11:00:00: Balanced after 3 trials
    11:00:00: Tank 1 is filling at 21.67 ft
    11:00:00: Tank 2 is filling at 26.69 ft
   
    11:05:00: Balanced after 2 trials
   
    11:10:00: Balanced after 2 trials
   
    11:15:00: Balanced after 2 trials
   
    11:20:00: Balanced after 2 trials
   
    11:25:00: Balanced after 2 trials
   
    11:30:00: Balanced after 2 trials
   
    11:35:00: Balanced after 2 trials
   
    11:40:00: Balanced after 2 trials
   
    11:45:00: Balanced after 2 trials
   
    11:50:00: Balanced after 2 trials
   
    11:55:00: Balanced after 2 trials
   
    12:00:00: Balanced after 3 trials
    12:00:00: Tank 1 is emptying at 21.85 ft
   
    12:05:00: Balanced after 1 trials
   
    12:10:00: Balanced after 1 trials
   
    12:15:00: Balanced after 1 trials
   
    12:20:00: Balanced after 1 trials
   
    12:25:00: Balanced after 1 trials
   
    12:30:00: Balanced after 1 trials
   
    12:35:00: Balanced after 1 trials
   
    12:40:00: Balanced after 1 trials
   
    12:45:00: Balanced after 1 trials
   
    12:50:00: Balanced after 1 trials
   
    12:55:00: Balanced after 1 trials
   
    13:00:00: Balanced after 3 trials
    13:00:00: Tank 2 is emptying at 27.25 ft
   
    13:05:00: Balanced after 1 trials
   
    13:10:00: Balanced after 1 trials
   
    13:15:00: Balanced after 1 trials
   
    13:20:00: Balanced after 1 trials
   
    13:25:00: Balanced after 1 trials
   
    13:30:00: Balanced after 1 trials
   
    13:35:00: Balanced after 1 trials
   
    13:40:00: Balanced after 1 trials
   
    13:45:00: Balanced after 1 trials
   
    13:50:00: Balanced after 1 trials
   
    13:55:00: Balanced after 1 trials
   
    14:00:00: Balanced after 3 trials
    14:00:00: Tank 1 is filling at 21.51 ft
    14:00:00: Tank 2 is filling at 27.14 ft
   
    14:05:00: Balanced after 2 trials
   
    14:10:00: Balanced after 2 trials
   
    14:15:00: Balanced after 2 trials
   
    14:20:00: Balanced after 2 trials
   
    14:25:00: Balanced after 2 trials
   
    14:30:00: Balanced after 2 trials
   
    14:35:00: Balanced after 2 trials
   
    14:40:00: Balanced after 2 trials
   
    14:45:00: Balanced after 2 trials
   
    14:50:00: Balanced after 2 trials
   
    14:55:00: Balanced after 2 trials
   
    15:00:00: Pump 10 changed by timer control
    15:00:00: Balanced after 5 trials
    15:00:00: Reservoir Lake is closed
    15:00:00: Tank 1 is emptying at 21.93 ft
    15:00:00: Pump 10 changed from open to closed
   
    15:05:00: Balanced after 2 trials
   
    15:10:00: Balanced after 2 trials
   
    15:15:00: Balanced after 2 trials
   
    15:20:00: Balanced after 2 trials
   
    15:25:00: Balanced after 2 trials
   
    15:30:00: Balanced after 2 trials
   
    15:35:00: Balanced after 2 trials
   
    15:40:00: Balanced after 2 trials
   
    15:45:00: Balanced after 2 trials
   
    15:50:00: Balanced after 2 trials
   
    15:55:00: Balanced after 2 trials
   
    16:00:00: Balanced after 3 trials
    16:00:00: Tank 2 is emptying at 28.29 ft
   
    16:05:00: Balanced after 1 trials
   
    16:10:00: Balanced after 1 trials
   
    16:15:00: Balanced after 1 trials
   
    16:20:00: Balanced after 1 trials
   
    16:25:00: Balanced after 1 trials
   
    16:30:00: Balanced after 1 trials
   
    16:35:00: Balanced after 1 trials
   
    16:40:00: Balanced after 1 trials
   
    16:45:00: Balanced after 1 trials
   
    16:50:00: Balanced after 1 trials
   
    16:55:00: Balanced after 1 trials
   
    17:00:00: Balanced after 2 trials
   
    17:05:00: Balanced after 1 trials
   
    17:10:00: Balanced after 1 trials
   
    17:15:00: Balanced after 1 trials
   
    17:20:00: Balanced after 1 trials
   
    17:25:00: Balanced after 1 trials
   
    17:30:00: Balanced after 1 trials
   
    17:35:00: Balanced after 1 trials
   
    17:40:00: Balanced after 1 trials
   
    17:45:00: Balanced after 1 trials
   
    17:50:00: Balanced after 1 trials
   
    17:55:00: Balanced after 1 trials
   
    18:00:00: Balanced after 3 trials
    18:00:00: Tank 2 is filling at 27.00 ft
   
    18:05:00: Balanced after 2 trials
   
    18:10:00: Balanced after 2 trials
   
    18:15:00: Balanced after 2 trials
   
    18:20:00: Balanced after 2 trials
   
    18:25:00: Balanced after 2 trials
   
    18:30:00: Balanced after 2 trials
   
    18:35:00: Balanced after 2 trials
   
    18:40:00: Balanced after 2 trials
   
    18:45:00: Balanced after 2 trials
   
    18:50:00: Balanced after 2 trials
   
    18:55:00: Balanced after 2 trials
   
    19:00:00: Balanced after 4 trials
   
    19:05:00: Balanced after 2 trials
   
    19:10:00: Balanced after 2 trials
   
    19:15:00: Balanced after 2 trials
   
    19:20:00: Balanced after 2 trials
   
    19:25:00: Balanced after 2 trials
   
    19:30:00: Balanced after 2 trials
   
    19:35:00: Balanced after 2 trials
   
    19:40:00: Balanced after 2 trials
   
    19:45:00: Balanced after 2 trials
   
    19:50:00: Balanced after 2 trials
   
    19:55:00: Balanced after 2 trials
   
    20:00:00: Balanced after 4 trials
    20:00:00: Tank 2 is emptying at 27.76 ft
   
    20:05:00: Balanced after 1 trials
   
    20:10:00: Balanced after 1 trials
   
    20:15:00: Balanced after 1 trials
   
    20:20:00: Balanced after 1 trials
   
    20:25:00: Balanced after 1 trials
   
    20:30:00: Balanced after 1 trials
   
    20:35:00: Balanced after 1 trials
   
    20:40:00: Balanced after 1 trials
   
    20:45:00: Balanced after 1 trials
   
    20:50:00: Balanced after 1 trials
   
    20:55:00: Balanced after 1 trials
   
    21:00:00: Balanced after 2 trials
   
    21:05:00: Balanced after 1 trials
   
    21:10:00: Balanced after 1 trials
   
    21:15:00: Balanced after 1 trials
   
    21:20:00: Balanced after 1 trials
   
    21:25:00: Balanced after 1 trials
   
    21:30:00: Balanced after 1 trials
   
    21:35:00: Balanced after 1 trials
   
    21:39:46: Pump 335 changed by Tank 1 control
    21:39:46: Pipe 330 changed by Tank 1 control
    21:39:46: Balanced after 5 trials
    21:39:46: Tank 1 is filling at 17.10 ft
    21:39:46: Tank 3 is filling at 29.43 ft
    21:39:46: Pipe 330 changed from open to closed
    21:39:46: Pump 335 changed from closed to open
   
    21:40:00: Balanced after 1 trials
   
    21:45:00: Balanced after 2 trials
   
    21:50:00: Balanced after 2 trials
   
    21:55:00: Balanced after 2 trials
   
    22:00:00: Balanced after 3 trials
    22:00:00: Tank 1 is emptying at 17.22 ft
   
    22:05:00: Balanced after 2 trials
   
    22:10:00: Balanced after 2 trials
   
    22:15:00: Balanced after 2 trials
   
    22:20:00: Balanced after 2 trials
   
    22:25:00: Balanced after 2 trials
   
    22:30:00: Balanced after 2 trials
   
    22:35:00: Balanced after 2 trials
   
    22:40:00: Balanced after 2 trials
   
    22:45:00: Balanced after 2 trials
   
    22:50:00: Balanced after 2 trials
   
    22:55:00: Balanced after 2 trials
   
    23:00:00: Balanced after 3 trials
   
    23:05:00: Balanced after 2 trials
   
    23:10:00: Balanced after 2 trials
   
    23:15:00: Balanced after 2 trials
   
    23:20:00: Balanced after 2 trials
   
    23:25:00: Balanced after 2 trials
   
    23:30:00: Balanced after 2 trials
   
    23:35:00: Balanced after 2 trials
   
    23:40:00: Balanced after 2 trials
   
    23:45:00: Balanced after 2 trials
   
    23:50:00: Balanced after 2 trials
   
    23:55:00: Balanced after 2 trials
   
    24:00:00: Balanced after 4 trials
    24:00:00: Tank 1 is filling at 16.19 ft
   
   
  Node Results at 0:00:00 hrs:
  --------------------------------------------------------
                     Demand      Head  Pressure  Chemical
  Node                  gpm        ft       psi      mg/L
  --------------------------------------------------------
  10                   0.00    145.59     -0.61      0.00
  15                 657.17    122.42     39.18      0.00
  20                   0.00    158.00     12.57      0.00
  35                1640.31    145.54     57.65      0.00
  40                   0.00    145.00      5.68      0.00
  50                   0.00    140.00     10.18      0.00
  60                   0.00    209.01     90.56      0.00
  601                  0.00    302.43    131.04      0.00
  61                   0.00    302.43    131.04      0.00
  101                243.14    145.59     44.89      0.00
  103                170.50    145.56     44.44      0.00
  105                173.27    146.87     51.29      0.00
  107                 69.94    146.86     54.10      0.00
  109                296.19    145.56     54.27      0.00
  111                181.68    146.07     58.96      0.00
  113                 25.61    146.09     62.43      0.00
  115                 66.69    146.92     57.59      0.00
  117                150.67    150.04     59.12      0.00
  119                225.45    157.47     67.37      0.00
  120                  0.00    155.07     67.19      0.00
  121                 53.29    160.95     70.61      0.00
  123                  0.00    165.41     66.91      0.00
  125                 58.37    160.38     64.73      0.00
  127                 22.60    158.72     44.51      0.00
  129                  0.00    158.71     46.67      0.00
  131                 54.72    158.69     66.16      0.00
  139                  7.54    152.63     52.70      0.00
  141                 12.61    148.29     62.52      0.00
  143                  7.94    136.27     61.00      0.00
  145                 35.37    149.67     64.42      0.00
  147                 10.94    150.69     57.28      0.00
  149                 34.65    151.13     58.55      0.00
  151                184.93    155.31     52.78      0.00
  153                 56.54    155.41     38.66      0.00
  157                 66.29    155.01     61.49      0.00
  159                 52.89    151.62     63.10      0.00
  161                 20.22    149.31     62.96      0.00
  163                 12.06    148.85     62.33      0.00
  164                  0.00    148.85     62.33      0.00
  166                  3.33    148.85     65.36      0.00
  167                 18.64    146.95     65.84      0.00
  169                  0.00    146.95     65.84      0.00
  171                 50.36    145.85     64.93      0.00
  173                  0.00    145.82     64.92      0.00
  177                 74.46    145.54     59.60      0.00
  179                  0.00    145.53     59.59      0.00
  181                  0.00    145.55     59.60      0.00
  183                  0.00    145.54     58.29      0.00
  184                  0.00    144.23     55.56      0.00
  185                 32.83    144.87     55.84      0.00
  187                  0.00    145.65     57.69      0.00
  189                138.14    145.95     61.51      0.00
  191                104.83    145.98     52.42      0.00
  193                 91.28    146.07     55.49      0.00
  195                  0.00    146.14     56.61      0.00
  197                 21.81    146.00     53.29      0.00
  199                152.73    140.25     61.63      0.00
  201                 57.10    139.45     60.38      0.00
  203               4725.25    139.26     59.48      0.00
  204                  0.00    145.38     53.89      0.00
  205                 83.66    140.22     51.66      0.00
  206                  0.00    139.35     59.95      0.00
  207                 88.82    139.49     56.54      0.00
  208                  0.00    139.19     53.38      0.00
  209                  1.11    138.92     61.06      0.00
  211                 11.10    138.83     57.12      0.00
  213                 17.84    138.77     57.10      0.00
  215                118.00    138.59     57.02      0.00
  217                 31.00    138.57     57.44      0.00
  219                 52.89    138.56     58.31      0.00
  225                 29.18    138.57     56.58      0.00
  229                 82.15    138.71     55.55      0.00
  231                 21.09    138.70     57.93      0.00
  237                 19.98    138.82     54.08      0.00
  239                 57.10    138.83     54.52      0.00
  241                  0.00    138.83     54.52      0.00
  243                  5.56    138.83     54.09      0.00
  247                 90.09    138.84     52.36      0.00
  249                  0.00    138.84     52.36      0.00
  251                 30.92    138.86     47.17      0.00
  253                 69.79    139.06     44.65      0.00
  255                 51.70    139.11     48.58      0.00
  257                  0.00    151.99     58.49      0.00
  259                  0.00    151.56     54.84      0.00
  261                  0.00    149.99     64.99      0.00
  263                  0.00    149.83     64.92      0.00
  265                  0.00    147.56     63.94      0.00
  267                  0.00    146.07     54.19      0.00
  269                  0.00    146.32     63.40      0.00
  271                  0.00    145.63     60.50      0.00
  273                  0.00    140.22     57.29      0.00
  275                  0.00    139.48     56.10      0.00
  River           -13159.84    220.00      0.00      0.00  Reservoir
  Lake                 0.00    167.00      0.00      0.00  Reservoir
  1                  391.04    145.00      5.68      0.00  Tank
  2                 -368.03    140.00     10.18      0.00  Tank
  3                 2212.53    158.00     12.57      0.00  Tank
   
   
  Link Results at 0:00:00 hrs:
  ----------------------------------------------
                       Flow  Velocity  Headloss
  Link                  gpm       fps   /1000ft
  ----------------------------------------------
  20               -2212.53      0.09      0.00
  40                -391.04      0.02      0.00
  50                 368.03      0.02      0.00
  60               13159.84      9.33      8.93
  101                  0.00      0.00      0.00
  103                175.57      0.28      0.02
  105               -418.71      1.19      0.51
  107                 40.57      0.12      0.01
  109                  5.08      0.01      0.00
  111               -291.12      0.83      0.26
  112                509.67      1.45      0.73
  113                -50.08      0.14      0.01
  114                129.34      0.83      0.41
  115                -29.37      0.19      0.03
  116                 53.65      0.15      0.01
  117                632.55      1.79      1.09
  119               -735.07      2.09      1.43
  120               1150.41      3.26      3.29
  121               1033.03      2.93      2.69
  122                367.88      2.35      2.87
  123               9852.51      4.47      1.74
  125              13159.84      5.97      2.97
  129               2886.17      2.05      0.62
  131               2609.63      1.85      0.51
  133              -2212.53      2.26      0.92
  135                374.50      0.27      0.01
  137                 54.72      0.09      0.00
  145                319.78      2.04      2.21
  147                312.24      1.99      2.12
  149               -665.11      4.25      8.58
  151               -657.17      4.19      8.39
  153                365.48      1.04      0.39
  155                400.84      1.14      0.47
  159               -411.79      1.17      0.49
  161               -446.44      2.85      4.10
  163               -161.63      0.46      0.09
  169                218.17      1.39      1.09
  171                469.74      1.33      0.63
  173               8006.92      3.63      1.18
  175               7940.62      3.60      1.17
  177               7887.73      3.58      1.15
  179               7619.61      3.46      1.08
  180                  3.33      0.01      0.00
  181                  3.33      0.01      0.00
  183               7402.95      3.36      1.02
  185                -18.64      0.12      0.01
  186                359.27      2.29      2.74
  187               6788.00      3.08      0.87
  189               4862.35      2.21      0.47
  191              -1875.30      1.33      0.28
  193              -1640.31      1.16      0.22
  195                383.60      1.09      0.43
  197                309.15      0.88      0.29
  199                -81.89      0.23      0.02
  201               -391.04      1.11      0.45
  202                566.69      3.62      6.38
  203                240.25      1.53      1.30
  204                566.69      1.61      0.89
  205                359.27      1.02      0.38
  207                322.15      0.91      0.31
  209                159.68      1.02      0.61
  211                596.31      1.69      0.97
  213                199.59      0.57      0.13
  215                172.27      0.49      0.10
  217               -239.28      0.68      0.18
  219               -247.90      0.70      0.19
  221                247.90      1.58      1.38
  223                 65.14      0.18      0.02
  225                 86.95      0.25      0.03
  229               4862.35      3.45      1.39
  231               4614.25      3.27      1.27
  233               4725.25      3.35      1.54
  235                 95.37      0.27      0.03
  237                463.11      1.31      0.61
  238                321.48      0.91      0.31
  239                -52.81      0.15      0.01
  240                321.48      0.91      0.31
  241                321.48      0.91      0.31
  243                320.37      0.51      0.08
  245                279.35      0.45      0.06
  247                231.08      0.37      0.04
  249                113.08      0.18      0.01
  251                 52.89      0.11      0.01
  257                 29.18      0.08      0.00
  261                 30.43      0.19      0.03
  263                 21.09      0.06      0.00
  269                 29.92      0.08      0.00
  271                 72.81      0.46      0.14
  273                -62.88      0.18      0.02
  275                -41.56      0.12      0.01
  277                  5.56      0.02      0.00
  281                -47.12      0.19      0.02
  283                -78.41      0.22      0.02
  285                 16.57      0.05      0.00
  287               -153.77      0.63      0.19
  289                368.03      1.50      0.97
  291                 69.79      0.29      0.04
  293                 92.77      0.59      0.22
  295                -61.85      0.18      0.01
  297                485.26      3.10      4.79
  299                233.14      1.49      1.23
  301                233.14      1.49      1.23
  303                252.12      1.61      1.42
  305                147.30      0.42      0.07
  307                399.42      1.13      0.46
  309                201.28      1.28      0.94
  311                -29.01      0.08      0.00
  313                447.70      1.27      0.57
  315              -2023.91      1.44      0.32
  317                115.30      0.74      0.33
  319                -19.93      0.06      0.00
  321               7604.23      3.45      1.08
  323               -168.10      0.48      0.09
  325                148.61      0.95      0.53
  329              13159.84      5.97      3.01
  330                  0.00      0.00      0.00
  333                 -0.00      0.00      0.00
  10                   0.00      0.00      0.00  Pump
  335              13159.84      0.00    -93.43  Pump
   
   
  Node Results at 0:05:00 hrs:
  --------------------------------------------------------
                     Demand      Head  Pressure  Chemical
  Node                  gpm        ft       psi      mg/L
  --------------------------------------------------------
  10                   0.00    145.63     -0.59      0.00
  15                 657.17    122.48     39.20      0.00
  20                   0.00    158.07     12.60      0.00
  35                1640.31    145.58     57.66      0.00
  40                   0.00    145.05      5.70      0.00
  50                   0.00    139.87     10.13      0.00
  60                   0.00    209.01     90.56      0.00
  601                  0.00    302.45    131.05      0.00
  61                   0.00    302.45    131.05      0.00
  101                243.14    145.63     44.90      0.00
  103                170.50    145.59     44.45      0.00
  105                173.27    146.91     51.31      0.00
  107                 69.94    146.90     54.12      0.00
  109                296.19    145.59     54.29      0.00
  111                181.68    146.11     58.98      0.00
  113                 25.61    146.12     62.45      0.00
  115                 66.69    146.95     57.61      0.00
  117                150.67    150.08     59.14      0.00
  119                225.45    157.52     67.39      0.00
  120                  0.00    155.12     67.21      0.00
  121                 53.29    161.00     70.63      0.00
  123                  0.00    165.46     66.93      0.00
  125                 58.37    160.43     64.75      0.00
  127                 22.60    158.78     44.54      0.00
  129                  0.00    158.77     46.70      0.00
  131                 54.72    158.75     66.19      0.00
  139                  7.54    152.69     52.73      0.00
  141                 12.61    148.34     62.54      0.00
  143                  7.94    136.33     61.02      0.00
  145                 35.37    149.72     64.44      0.00
  147                 10.94    150.75     57.30      0.00
  149                 34.65    151.18     58.57      0.00
  151                184.93    155.36     52.80      0.00
  153                 56.54    155.46     38.68      0.00
  157                 66.29    155.06     61.51      0.00
  159                 52.89    151.66     63.11      0.00
  161                 20.22    149.35     62.98      0.00
  163                 12.06    148.89     62.35      0.00
  164                  0.00    148.89     62.35      0.00
  166                  3.33    148.89     65.38      0.00
  167                 18.64    146.99     65.86      0.00
  169                  0.00    146.99     65.86      0.00
  171                 50.36    145.88     64.94      0.00
  173                  0.00    145.85     64.93      0.00
  177                 74.46    145.57     59.61      0.00
  179                  0.00    145.56     59.61      0.00
  181                  0.00    145.59     59.62      0.00
  183                  0.00    145.57     58.31      0.00
  184                  0.00    144.26     55.58      0.00
  185                 32.83    144.90     55.85      0.00
  187                  0.00    145.68     57.71      0.00
  189                138.14    145.99     61.52      0.00
  191                104.83    146.01     52.43      0.00
  193                 91.28    146.11     55.51      0.00
  195                  0.00    146.17     56.62      0.00
  197                 21.81    146.03     53.31      0.00
  199                152.73    140.26     61.64      0.00
  201                 57.10    139.46     60.38      0.00
  203               4725.25    139.27     59.48      0.00
  204                  0.00    145.41     53.91      0.00
  205                 83.66    140.23     51.66      0.00
  206                  0.00    139.35     59.94      0.00
  207                 88.82    139.49     56.54      0.00
  208                  0.00    139.18     53.37      0.00
  209                  1.11    138.88     61.05      0.00
  211                 11.10    138.79     57.10      0.00
  213                 17.84    138.73     57.08      0.00
  215                118.00    138.55     57.00      0.00
  217                 31.00    138.53     57.43      0.00
  219                 52.89    138.52     58.29      0.00
  225                 29.18    138.53     56.56      0.00
  229                 82.15    138.66     55.53      0.00
  231                 21.09    138.66     57.91      0.00
  237                 19.98    138.77     54.06      0.00
  239                 57.10    138.78     54.50      0.00
  241                  0.00    138.78     54.50      0.00
  243                  5.56    138.78     54.07      0.00
  247                 90.09    138.79     52.34      0.00
  249                  0.00    138.79     52.34      0.00
  251                 30.92    138.80     47.15      0.00
  253                 69.79    138.98     44.62      0.00
  255                 51.70    139.03     48.54      0.00
  257                  0.00    152.03     58.51      0.00
  259                  0.00    151.60     54.86      0.00
  261                  0.00    150.04     65.01      0.00
  263                  0.00    149.87     64.94      0.00
  265                  0.00    147.59     63.95      0.00
  267                  0.00    146.11     54.21      0.00
  269                  0.00    146.36     63.42      0.00
  271                  0.00    145.67     60.52      0.00
  273                  0.00    140.23     57.30      0.00
  275                  0.00    139.48     56.10      0.00
  River           -13158.11    220.00      0.00      0.00  Reservoir
  Lake                 0.00    167.00      0.00      0.00  Reservoir
  1                  386.26    145.05      5.70      0.00  Tank
  2                 -356.67    139.87     10.13      0.00  Tank
  3                 2204.21    158.07     12.60      0.00  Tank
   
   
  Link Results at 0:05:00 hrs:
  ----------------------------------------------
                       Flow  Velocity  Headloss
  Link                  gpm       fps   /1000ft
  ----------------------------------------------
  20               -2204.21      0.09      0.00
  40                -386.26      0.02      0.00
  50                 356.67      0.01      0.00
  60               13158.11      9.33      8.93
  101                  0.00      0.00      0.00
  103                175.78      0.28      0.02
  105               -418.92      1.19      0.51
  107                 40.71      0.12      0.01
  109                  5.29      0.01      0.00
  111               -290.90      0.83      0.26
  112                510.15      1.45      0.73
  113                -49.71      0.14      0.01
  114                129.48      0.83      0.41
  115                -29.23      0.19      0.03
  116                 54.16      0.15      0.01
  117                632.91      1.80      1.09
  119               -735.55      2.09      1.44
  120               1151.03      3.27      3.29
  121               1033.60      2.93      2.69
  122                368.10      2.35      2.87
  123               9858.61      4.47      1.74
  125              13158.11      5.97      2.97
  129               2878.11      2.04      0.61
  131               2601.47      1.84      0.51
  133              -2204.21      2.25      0.91
  135                374.65      0.27      0.01
  137                 54.72      0.09      0.00
  145                319.93      2.04      2.21
  147                312.39      1.99      2.12
  149               -665.11      4.25      8.58
  151               -657.17      4.19      8.39
  153                365.32      1.04      0.39
  155                400.69      1.14      0.47
  159               -411.63      1.17      0.49
  161               -446.28      2.85      4.10
  163               -161.74      0.46      0.09
  169                218.28      1.39      1.09
  171                469.47      1.33      0.62
  173               8012.67      3.64      1.19
  175               7946.37      3.61      1.17
  177               7893.48      3.58      1.15
  179               7625.27      3.46      1.08
  180                  3.33      0.01      0.00
  181                  3.33      0.01      0.00
  183               7408.60      3.36      1.03
  185                -18.64      0.12      0.01
  186                359.97      2.30      2.75
  187               6793.67      3.08      0.87
  189               4872.35      2.21      0.47
  191              -1870.96      1.33      0.28
  193              -1640.31      1.16      0.22
  195                379.36      1.08      0.42
  197                304.91      0.86      0.28
  199                -81.35      0.23      0.02
  201               -386.26      1.10      0.44
  202                568.05      3.63      6.41
  203                240.91      1.54      1.31
  204                568.05      1.61      0.89
  205                359.97      1.02      0.38
  207                322.26      0.91      0.31
  209                159.92      1.02      0.61
  211                596.29      1.69      0.97
  213                200.06      0.57      0.13
  215                172.73      0.49      0.10
  217               -239.43      0.68      0.18
  219               -247.99      0.70      0.19
  221                247.99      1.58      1.38
  223                 65.46      0.19      0.02
  225                 87.27      0.25      0.03
  229               4872.35      3.46      1.40
  231               4622.40      3.28      1.27
  233               4725.25      3.35      1.54
  235                 97.22      0.28      0.03
  237                465.96      1.32      0.62
  238                332.84      0.94      0.33
  239                -44.30      0.13      0.01
  240                332.84      0.94      0.33
  241                332.84      0.94      0.33
  243                331.73      0.53      0.08
  245                280.19      0.45      0.06
  247                231.08      0.37      0.04
  249                113.08      0.18      0.01
  251                 52.89      0.11      0.01
  257                 29.18      0.08      0.00
  261                 31.27      0.20      0.03
  263                 21.09      0.06      0.00
  269                 40.44      0.11      0.01
  271                 71.97      0.46      0.14
  273                -51.52      0.15      0.01
  275                -37.26      0.11      0.01
  277                  5.56      0.02      0.00
  281                -42.82      0.17      0.02
  283                -71.36      0.20      0.02
  285                 13.68      0.04      0.00
  287               -146.58      0.60      0.18
  289                356.67      1.46      0.91
  291                 69.79      0.29      0.04
  293                 88.60      0.57      0.21
  295                -57.68      0.16      0.01
  297                485.52      3.10      4.79
  299                233.27      1.49      1.23
  301                233.27      1.49      1.23
  303                252.26      1.61      1.43
  305                147.38      0.42      0.07
  307                399.64      1.13      0.46
  309                201.28      1.28      0.94
  311                -28.55      0.08      0.00
  313                447.58      1.27      0.57
  315              -2019.67      1.43      0.32
  317                115.65      0.74      0.34
  319                -18.43      0.05      0.00
  321               7609.88      3.45      1.08
  323               -159.95      0.45      0.09
  325                148.71      0.95      0.54
  329              13158.11      5.97      3.01
  330                  0.00      0.00      0.00
  333                 -0.00      0.00      0.00
  10                   0.00      0.00      0.00  Pump
  335              13158.11      0.00    -93.44  Pump
   
   
  Node Results at 0:10:00 hrs:
  --------------------------------------------------------
                     Demand      Head  Pressure  Chemical
  Node                  gpm        ft       psi      mg/L
  --------------------------------------------------------
  10                   0.00    145.66     -0.58      0.00
  15                 657.17    122.53     39.23      0.00
  20                   0.00    158.14     12.63      0.00
  35                1640.31    145.61     57.68      0.00
  40                   0.00    145.09      5.72      0.00
  50                   0.00    139.75     10.08      0.00
  60                   0.00    209.01     90.57      0.00
  601                  0.00    302.47    131.06      0.00
  61                   0.00    302.47    131.06      0.00
  101                243.14    145.66     44.92      0.00
  103                170.50    145.63     44.47      0.00
  105                173.27    146.95     51.32      0.00
  107                 69.94    146.94     54.14      0.00
  109                296.19    145.63     54.31      0.00
  111                181.68    146.14     58.99      0.00
  113                 25.61    146.16     62.46      0.00
  115                 66.69    146.99     57.62      0.00
  117                150.67    150.12     59.16      0.00
  119                225.45    157.57     67.41      0.00
  120                  0.00    155.17     67.23      0.00
  121                 53.29    161.06     70.65      0.00
  123                  0.00    165.51     66.95      0.00
  125                 58.37    160.49     64.77      0.00
  127                 22.60    158.85     44.56      0.00
  129                  0.00    158.84     46.73      0.00
  131                 54.72    158.82     66.22      0.00
  139                  7.54    152.74     52.75      0.00
  141                 12.61    148.40     62.57      0.00
  143                  7.94    136.38     61.04      0.00
  145                 35.37    149.78     64.47      0.00
  147                 10.94    150.80     57.33      0.00
  149                 34.65    151.23     58.60      0.00
  151                184.93    155.41     52.82      0.00
  153                 56.54    155.51     38.70      0.00
  157                 66.29    155.10     61.53      0.00
  159                 52.89    151.70     63.13      0.00
  161                 20.22    149.39     63.00      0.00
  163                 12.06    148.92     62.36      0.00
  164                  0.00    148.92     62.36      0.00
  166                  3.33    148.92     65.39      0.00
  167                 18.64    147.02     65.87      0.00
  169                  0.00    147.02     65.87      0.00
  171                 50.36    145.91     64.96      0.00
  173                  0.00    145.89     64.95      0.00
  177                 74.46    145.61     59.62      0.00
  179                  0.00    145.60     59.62      0.00
  181                  0.00    145.62     59.63      0.00
  183                  0.00    145.60     58.32      0.00
  184                  0.00    144.29     55.59      0.00
  185                 32.83    144.93     55.87      0.00
  187                  0.00    145.72     57.72      0.00
  189                138.14    146.02     61.54      0.00
  191                104.83    146.05     52.45      0.00
  193                 91.28    146.14     55.52      0.00
  195                  0.00    146.21     56.64      0.00
  197                 21.81    146.07     53.32      0.00
  199                152.73    140.27     61.64      0.00
  201                 57.10    139.47     60.39      0.00
  203               4725.25    139.28     59.48      0.00
  204                  0.00    145.44     53.92      0.00
  205                 83.66    140.24     51.67      0.00
  206                  0.00    139.34     59.94      0.00
  207                 88.82    139.50     56.54      0.00
  208                  0.00    139.16     53.37      0.00
  209                  1.11    138.85     61.03      0.00
  211                 11.10    138.74     57.08      0.00
  213                 17.84    138.69     57.06      0.00
  215                118.00    138.51     56.98      0.00
  217                 31.00    138.49     57.41      0.00
  219                 52.89    138.48     58.27      0.00
  225                 29.18    138.48     56.54      0.00
  229                 82.15    138.62     55.51      0.00
  231                 21.09    138.61     57.89      0.00
  237                 19.98    138.72     54.04      0.00
  239                 57.10    138.73     54.48      0.00
  241                  0.00    138.73     54.48      0.00
  243                  5.56    138.73     54.04      0.00
  247                 90.09    138.73     52.31      0.00
  249                  0.00    138.73     52.31      0.00
  251                 30.92    138.75     47.12      0.00
  253                 69.79    138.91     44.59      0.00
  255                 51.70    138.96     48.51      0.00
  257                  0.00    152.07     58.53      0.00
  259                  0.00    151.64     54.87      0.00
  261                  0.00    150.08     65.03      0.00
  263                  0.00    149.91     64.96      0.00
  265                  0.00    147.63     63.97      0.00
  267                  0.00    146.15     54.23      0.00
  269                  0.00    146.39     63.43      0.00
  271                  0.00    145.70     60.53      0.00
  273                  0.00    140.24     57.30      0.00
  275                  0.00    139.49     56.11      0.00
  River           -13156.38    220.00      0.00      0.00  Reservoir
  Lake                 0.00    167.00      0.00      0.00  Reservoir
  1                  381.67    145.09      5.72      0.00  Tank
  2                 -345.54    139.75     10.08      0.00  Tank
  3                 2195.94    158.14     12.63      0.00  Tank
   
   
  Link Results at 0:10:00 hrs:
  ----------------------------------------------
                       Flow  Velocity  Headloss
  Link                  gpm       fps   /1000ft
  ----------------------------------------------
  20               -2195.94      0.09      0.00
  40                -381.67      0.02      0.00
  50                 345.54      0.01      0.00
  60               13156.38      9.33      8.93
  101                  0.00      0.00      0.00
  103                175.99      0.28      0.03
  105               -419.13      1.19      0.51
  107                 40.85      0.12      0.01
  109                  5.50      0.01      0.00
  111               -290.69      0.82      0.26
  112                510.62      1.45      0.73
  113                -49.33      0.14      0.01
  114                129.63      0.83      0.42
  115                -29.09      0.19      0.03
  116                 54.68      0.16      0.01
  117                633.25      1.80      1.09
  119               -736.03      2.09      1.44
  120               1151.64      3.27      3.29
  121               1034.16      2.93      2.70
  122                368.31      2.35      2.87
  123               9864.68      4.48      1.74
  125              13156.38      5.97      2.97
  129               2870.11      2.04      0.61
  131               2593.35      1.84      0.51
  133              -2195.94      2.24      0.90
  135                374.80      0.27      0.01
  137                 54.72      0.09      0.00
  145                320.08      2.04      2.22
  147                312.55      1.99      2.12
  149               -665.11      4.25      8.58
  151               -657.17      4.19      8.39
  153                365.17      1.04      0.39
  155                400.53      1.14      0.47
  159               -411.48      1.17      0.49
  161               -446.13      2.85      4.10
  163               -161.85      0.46      0.09
  169                218.39      1.39      1.09
  171                469.21      1.33      0.62
  173               8018.38      3.64      1.19
  175               7952.09      3.61      1.17
  177               7899.20      3.59      1.15
  179               7630.89      3.46      1.08
  180                  3.33      0.01      0.00
  181                  3.33      0.01      0.00
  183               7414.21      3.37      1.03
  185                -18.64      0.12      0.01
  186                360.66      2.30      2.76
  187               6799.29      3.09      0.87
  189               4882.15      2.22      0.47
  191              -1866.78      1.32      0.28
  193              -1640.31      1.16      0.22
  195                375.28      1.06      0.41
  197                300.83      0.85      0.27
  199                -80.85      0.23      0.02
  201               -381.67      1.08      0.43
  202                569.38      3.63      6.44
  203                241.55      1.54      1.32
  204                569.38      1.62      0.89
  205                360.66      1.02      0.38
  207                322.39      0.91      0.31
  209                160.14      1.02      0.61
  211                596.28      1.69      0.97
  213                200.52      0.57      0.13
  215                173.20      0.49      0.10
  217               -239.59      0.68      0.18
  219               -248.09      0.70      0.19
  221                248.09      1.58      1.38
  223                 65.77      0.19      0.02
  225                 87.58      0.25      0.03
  229               4882.15      3.46      1.40
  231               4630.55      3.28      1.27
  233               4725.25      3.35      1.54
  235                 98.87      0.28      0.03
  237                468.59      1.33      0.62
  238                343.97      0.98      0.35
  239                -35.80      0.10      0.01
  240                343.97      0.98      0.35
  241                343.97      0.98      0.35
  243                342.86      0.55      0.09
  245                281.19      0.45      0.06
  247                231.08      0.37      0.04
  249                113.08      0.18      0.01
  251                 52.89      0.11      0.01
  257                 29.18      0.08      0.00
  261                 32.27      0.21      0.03
  263                 21.09      0.06      0.00
  269                 50.57      0.14      0.01
  271                 70.98      0.45      0.14
  273                -40.39      0.11      0.01
  275                -33.09      0.09      0.00
  277                  5.56      0.02      0.00
  281                -38.65      0.16      0.01
  283                -64.40      0.18      0.02
  285                 10.81      0.03      0.00
  287               -139.54      0.57      0.16
  289                345.54      1.41      0.86
  291                 69.79      0.29      0.04
  293                 84.52      0.54      0.19
  295                -53.59      0.15      0.01
  297                485.79      3.10      4.80
  299                233.39      1.49      1.23
  301                233.39      1.49      1.23
  303                252.39      1.61      1.43
  305                147.47      0.42      0.07
  307                399.86      1.13      0.46
  309                201.29      1.28      0.94
  311                -28.09      0.08      0.00
  313                447.47      1.27      0.57
  315              -2015.59      1.43      0.32
  317                116.00      0.74      0.34
  319                -17.12      0.05      0.00
  321               7615.50      3.46      1.08
  323               -151.80      0.43      0.08
  325                148.81      0.95      0.54
  329              13156.38      5.97      3.01
  330                  0.00      0.00      0.00
  333                 -0.00      0.00      0.00
  10                   0.00      0.00      0.00  Pump
  335              13156.38      0.00    -93.46  Pump
   
   
  Node Results at 0:15:00 hrs:
  --------------------------------------------------------
                     Demand      Head  Pressure  Chemical
  Node                  gpm        ft       psi      mg/L
  --------------------------------------------------------
  10                   0.00    145.70     -0.56      0.00
  15                 657.17    122.59     39.25      0.00
  20                   0.00    158.21     12.66      0.00
  35                1640.31    145.65     57.69      0.00
  40                   0.00    145.14      5.74      0.00
  50                   0.00    139.64     10.02      0.00
  60                   0.00    209.02     90.57      0.00
  601                  0.00    302.49    131.07      0.00
  61                   0.00    302.49    131.07      0.00
  101                243.14    145.70     44.93      0.00
  103                170.50    145.67     44.49      0.00
  105                173.27    146.99     51.34      0.00
  107                 69.94    146.98     54.15      0.00
  109                296.19    145.67     54.32      0.00
  111                181.68    146.18     59.01      0.00
  113                 25.61    146.20     62.48      0.00
  115                 66.69    147.03     57.64      0.00
  117                150.67    150.16     59.17      0.00
  119                225.45    157.62     67.43      0.00
  120                  0.00    155.21     67.25      0.00
  121                 53.29    161.11     70.67      0.00
  123                  0.00    165.56     66.97      0.00
  125                 58.37    160.54     64.80      0.00
  127                 22.60    158.91     44.59      0.00
  129                  0.00    158.90     46.75      0.00
  131                 54.72    158.88     66.24      0.00
  139                  7.54    152.80     52.78      0.00
  141                 12.61    148.46     62.59      0.00
  143                  7.94    136.44     61.07      0.00
  145                 35.37    149.83     64.49      0.00
  147                 10.94    150.85     57.35      0.00
  149                 34.65    151.29     58.62      0.00
  151                184.93    155.46     52.85      0.00
  153                 56.54    155.56     38.72      0.00
  157                 66.29    155.15     61.55      0.00
  159                 52.89    151.74     63.15      0.00
  161                 20.22    149.43     63.01      0.00
  163                 12.06    148.96     62.38      0.00
  164                  0.00    148.96     62.38      0.00
  166                  3.33    148.96     65.41      0.00
  167                 18.64    147.06     65.89      0.00
  169                  0.00    147.06     65.89      0.00
  171                 50.36    145.94     64.97      0.00
  173                  0.00    145.92     64.96      0.00
  177                 74.46    145.64     59.64      0.00
  179                  0.00    145.63     59.64      0.00
  181                  0.00    145.65     59.64      0.00
  183                  0.00    145.64     58.34      0.00
  184                  0.00    144.32     55.60      0.00
  185                 32.83    144.96     55.88      0.00
  187                  0.00    145.75     57.74      0.00
  189                138.14    146.06     61.55      0.00
  191                104.83    146.08     52.47      0.00
  193                 91.28    146.18     55.54      0.00
  195                  0.00    146.25     56.65      0.00
  197                 21.81    146.10     53.34      0.00
  199                152.73    140.28     61.65      0.00
  201                 57.10    139.48     60.39      0.00
  203               4725.25    139.29     59.49      0.00
  204                  0.00    145.47     53.93      0.00
  205                 83.66    140.25     51.67      0.00
  206                  0.00    139.33     59.94      0.00
  207                 88.82    139.50     56.55      0.00
  208                  0.00    139.14     53.36      0.00
  209                  1.11    138.81     61.01      0.00
  211                 11.10    138.70     57.07      0.00
  213                 17.84    138.64     57.04      0.00
  215                118.00    138.47     56.96      0.00
  217                 31.00    138.45     57.39      0.00
  219                 52.89    138.44     58.25      0.00
  225                 29.18    138.44     56.52      0.00
  229                 82.15    138.57     55.49      0.00
  231                 21.09    138.57     57.87      0.00
  237                 19.98    138.67     54.02      0.00
  239                 57.10    138.68     54.46      0.00
  241                  0.00    138.68     54.46      0.00
  243                  5.56    138.68     54.02      0.00
  247                 90.09    138.68     52.29      0.00
  249                  0.00    138.68     52.29      0.00
  251                 30.92    138.70     47.10      0.00
  253                 69.79    138.84     44.56      0.00
  255                 51.70    138.89     48.48      0.00
  257                  0.00    152.12     58.55      0.00
  259                  0.00    151.68     54.89      0.00
  261                  0.00    150.12     65.05      0.00
  263                  0.00    149.95     64.98      0.00
  265                  0.00    147.66     63.98      0.00
  267                  0.00    146.18     54.24      0.00
  269                  0.00    146.43     63.45      0.00
  271                  0.00    145.73     60.55      0.00
  273                  0.00    140.25     57.31      0.00
  275                  0.00    139.50     56.11      0.00
  River           -13154.66    220.00      0.00      0.00  Reservoir
  Lake                 0.00    167.00      0.00      0.00  Reservoir
  1                  377.25    145.14      5.74      0.00  Tank
  2                 -334.63    139.64     10.02      0.00  Tank
  3                 2187.72    158.21     12.66      0.00  Tank
   
   
  Link Results at 0:15:00 hrs:
  ----------------------------------------------
                       Flow  Velocity  Headloss
  Link                  gpm       fps   /1000ft
  ----------------------------------------------
  20               -2187.72      0.09      0.00
  40                -377.25      0.02      0.00
  50                 334.63      0.01      0.00
  60               13154.66      9.33      8.92
  101                  0.00      0.00      0.00
  103                176.20      0.28      0.03
  105               -419.34      1.19      0.51
  107                 40.99      0.12      0.01
  109                  5.71      0.01      0.00
  111               -290.48      0.82      0.26
  112                511.09      1.45      0.73
  113                -48.96      0.14      0.01
  114                129.77      0.83      0.42
  115                -28.95      0.18      0.03
  116                 55.19      0.16      0.01
  117                633.60      1.80      1.09
  119               -736.50      2.09      1.44
  120               1152.25      3.27      3.30
  121               1034.72      2.94      2.70
  122                368.52      2.35      2.88
  123               9870.70      4.48      1.74
  125              13154.66      5.97      2.97
  129               2862.15      2.03      0.61
  131               2585.28      1.83      0.50
  133              -2187.72      2.23      0.90
  135                374.96      0.27      0.01
  137                 54.72      0.09      0.00
  145                320.24      2.04      2.22
  147                312.70      2.00      2.12
  149               -665.11      4.25      8.58
  151               -657.17      4.19      8.39
  153                365.02      1.04      0.39
  155                400.38      1.14      0.47
  159               -411.33      1.17      0.49
  161               -445.98      2.85      4.09
  163               -161.96      0.46      0.09
  169                218.49      1.39      1.09
  171                468.95      1.33      0.62
  173               8024.05      3.64      1.19
  175               7957.76      3.61      1.17
  177               7904.87      3.59      1.16
  179               7636.46      3.47      1.08
  180                  3.33      0.01      0.00
  181                  3.33      0.01      0.00
  183               7419.78      3.37      1.03
  185                -18.64      0.12      0.01
  186                361.34      2.31      2.77
  187               6804.87      3.09      0.88
  189               4891.77      2.22      0.48
  191              -1862.74      1.32      0.27
  193              -1640.31      1.16      0.22
  195                371.34      1.05      0.40
  197                296.88      0.84      0.27
  199                -80.37      0.23      0.02
  201               -377.25      1.07      0.42
  202                570.67      3.64      6.46
  203                242.16      1.55      1.32
  204                570.67      1.62      0.90
  205                361.34      1.03      0.38
  207                322.53      0.91      0.31
  209                160.36      1.02      0.62
  211                596.28      1.69      0.97
  213                200.98      0.57      0.13
  215                173.66      0.49      0.10
  217               -239.74      0.68      0.18
  219               -248.19      0.70      0.19
  221                248.19      1.58      1.38
  223                 66.08      0.19      0.02
  225                 87.89      0.25      0.03
  229               4891.77      3.47      1.41
  231               4638.72      3.29      1.28
  233               4725.25      3.35      1.54
  235                100.32      0.28      0.04
  237                470.99      1.34      0.63
  238                354.89      1.01      0.37
  239                -27.28      0.08      0.00
  240                354.89      1.01      0.37
  241                354.89      1.01      0.37
  243                353.77      0.56      0.09
  245                282.31      0.45      0.06
  247                231.08      0.37      0.04
  249                113.08      0.18      0.01
  251                 52.89      0.11      0.01
  257                 29.18      0.08      0.00
  261                 33.39      0.21      0.03
  263                 21.09      0.06      0.00
  269                 60.36      0.17      0.01
  271                 69.85      0.45      0.13
  273                -29.47      0.08      0.00
  275                -29.01      0.08      0.00
  277                  5.56      0.02      0.00
  281                -34.56      0.14      0.01
  283                -57.57      0.16      0.01
  285                  7.99      0.02      0.00
  287               -132.64      0.54      0.15
  289                334.63      1.37      0.81
  291                 69.79      0.29      0.04
  293                 80.50      0.51      0.17
  295                -49.58      0.14      0.01
  297                486.05      3.10      4.80
  299                233.52      1.49      1.24
  301                233.52      1.49      1.24
  303                252.53      1.61      1.43
  305                147.55      0.42      0.07
  307                400.08      1.13      0.46
  309                201.29      1.28      0.94
  311                -27.63      0.08      0.00
  313                447.37      1.27      0.57
  315              -2011.65      1.43      0.32
  317                116.34      0.74      0.34
  319                -16.02      0.05      0.00
  321               7621.08      3.46      1.08
  323               -143.63      0.41      0.07
  325                148.91      0.95      0.54
  329              13154.66      5.97      3.01
  330                  0.00      0.00      0.00
  333                 -0.00      0.00      0.00
  10                   0.00      0.00      0.00  Pump
  335              13154.66      0.00    -93.47  Pump
   
   
  Node Results at 0:20:00 hrs:
  --------------------------------------------------------
                     Demand      Head  Pressure  Chemical
  Node                  gpm        ft       psi      mg/L
  --------------------------------------------------------
  10                   0.00    145.74     -0.55      0.00
  15                 657.17    122.64     39.28      0.00
  20                   0.00    158.28     12.69      0.00
  35                1640.31    145.68     57.71      0.00
  40                   0.00    145.18      5.75      0.00
  50                   0.00    139.52      9.98      0.00
  60                   0.00    209.02     90.57      0.00
  601                  0.00    302.50    131.08      0.00
  61                   0.00    302.50    131.08      0.00
  101                243.14    145.74     44.95      0.00
  103                170.50    145.70     44.50      0.00
  105                173.27    147.03     51.36      0.00
  107                 69.94    147.02     54.17      0.00
  109                296.19    145.70     54.34      0.00
  111                181.68    146.22     59.02      0.00
  113                 25.61    146.23     62.50      0.00
  115                 66.69    147.07     57.66      0.00
  117                150.67    150.20     59.19      0.00
  119                225.45    157.67     67.45      0.00
  120                  0.00    155.26     67.27      0.00
  121                 53.29    161.16     70.70      0.00
  123                  0.00    165.61     66.99      0.00
  125                 58.37    160.60     64.82      0.00
  127                 22.60    158.98     44.62      0.00
  129                  0.00    158.97     46.78      0.00
  131                 54.72    158.95     66.27      0.00
  139                  7.54    152.86     52.80      0.00
  141                 12.61    148.51     62.62      0.00
  143                  7.94    136.49     61.09      0.00
  145                 35.37    149.89     64.51      0.00
  147                 10.94    150.91     57.37      0.00
  149                 34.65    151.34     58.64      0.00
  151                184.93    155.51     52.87      0.00
  153                 56.54    155.61     38.74      0.00
  157                 66.29    155.19     61.57      0.00
  159                 52.89    151.78     63.17      0.00
  161                 20.22    149.46     63.03      0.00
  163                 12.06    149.00     62.39      0.00
  164                  0.00    149.00     62.39      0.00
  166                  3.33    149.00     65.43      0.00
  167                 18.64    147.09     65.90      0.00
  169                  0.00    147.09     65.90      0.00
  171                 50.36    145.98     64.98      0.00
  173                  0.00    145.95     64.97      0.00
  177                 74.46    145.67     59.65      0.00
  179                  0.00    145.67     59.65      0.00
  181                  0.00    145.69     59.66      0.00
  183                  0.00    145.67     58.35      0.00
  184                  0.00    144.35     55.61      0.00
  185                 32.83    144.99     55.89      0.00
  187                  0.00    145.78     57.75      0.00
  189                138.14    146.09     61.57      0.00
  191                104.83    146.12     52.48      0.00
  193                 91.28    146.21     55.55      0.00
  195                  0.00    146.28     56.67      0.00
  197                 21.81    146.14     53.36      0.00
  199                152.73    140.29     61.66      0.00
  201                 57.10    139.48     60.40      0.00
  203               4725.25    139.30     59.49      0.00
  204                  0.00    145.51     53.95      0.00
  205                 83.66    140.27     51.68      0.00
  206                  0.00    139.33     59.94      0.00
  207                 88.82    139.51     56.55      0.00
  208                  0.00    139.13     53.35      0.00
  209                  1.11    138.78     61.00      0.00
  211                 11.10    138.66     57.05      0.00
  213                 17.84    138.60     57.02      0.00
  215                118.00    138.43     56.95      0.00
  217                 31.00    138.41     57.37      0.00
  219                 52.89    138.40     58.23      0.00
  225                 29.18    138.40     56.50      0.00
  229                 82.15    138.52     55.47      0.00
  231                 21.09    138.52     57.85      0.00
  237                 19.98    138.63     54.00      0.00
  239                 57.10    138.63     54.43      0.00
  241                  0.00    138.63     54.43      0.00
  243                  5.56    138.63     54.00      0.00
  247                 90.09    138.63     52.27      0.00
  249                  0.00    138.63     52.27      0.00
  251                 30.92    138.64     47.08      0.00
  253                 69.79    138.77     44.53      0.00
  255                 51.70    138.82     48.45      0.00
  257                  0.00    152.16     58.56      0.00
  259                  0.00    151.73     54.91      0.00
  261                  0.00    150.16     65.06      0.00
  263                  0.00    149.99     64.99      0.00
  265                  0.00    147.70     64.00      0.00
  267                  0.00    146.22     54.26      0.00
  269                  0.00    146.46     63.46      0.00
  271                  0.00    145.77     60.56      0.00
  273                  0.00    140.27     57.31      0.00
  275                  0.00    139.50     56.11      0.00
  River           -13152.93    220.00      0.00      0.00  Reservoir
  Lake                 0.00    167.00      0.00      0.00  Reservoir
  1                  372.98    145.18      5.75      0.00  Tank
  2                 -323.91    139.52      9.98      0.00  Tank
  3                 2179.55    158.28     12.69      0.00  Tank
   
   
  Link Results at 0:20:00 hrs:
  ----------------------------------------------
                       Flow  Velocity  Headloss
  Link                  gpm       fps   /1000ft
  ----------------------------------------------
  20               -2179.55      0.09      0.00
  40                -372.98      0.02      0.00
  50                 323.91      0.01      0.00
  60               13152.93      9.33      8.92
  101                  0.00      0.00      0.00
  103                176.41      0.28      0.03
  105               -419.55      1.19      0.51
  107                 41.13      0.12      0.01
  109                  5.91      0.01      0.00
  111               -290.28      0.82      0.26
  112                511.56      1.45      0.73
  113                -48.59      0.14      0.01
  114                129.91      0.83      0.42
  115                -28.81      0.18      0.03
  116                 55.70      0.16      0.01
  117                633.95      1.80      1.09
  119               -736.97      2.09      1.44
  120               1152.85      3.27      3.30
  121               1035.28      2.94      2.70
  122                368.73      2.35      2.88
  123               9876.68      4.48      1.75
  125              13152.93      5.97      2.97
  129               2854.23      2.02      0.60
  131               2577.26      1.83      0.50
  133              -2179.55      2.23      0.89
  135                375.11      0.27      0.01
  137                 54.72      0.09      0.00
  145                320.39      2.04      2.22
  147                312.85      2.00      2.12
  149               -665.11      4.25      8.58
  151               -657.17      4.19      8.39
  153                364.86      1.04      0.39
  155                400.23      1.14      0.46
  159               -411.17      1.17      0.49
  161               -445.82      2.85      4.09
  163               -162.06      0.46      0.09
  169                218.60      1.40      1.09
  171                468.70      1.33      0.62
  173               8029.69      3.64      1.19
  175               7963.40      3.61      1.17
  177               7910.51      3.59      1.16
  179               7642.00      3.47      1.09
  180                  3.33      0.01      0.00
  181                  3.33      0.01      0.00
  183               7425.32      3.37      1.03
  185                -18.64      0.12      0.01
  186                362.01      2.31      2.78
  187               6810.40      3.09      0.88
  189               4901.23      2.22      0.48
  191              -1858.82      1.32      0.27
  193              -1640.31      1.16      0.22
  195                367.52      1.04      0.40
  197                293.06      0.83      0.26
  199                -79.92      0.23      0.02
  201               -372.98      1.06      0.41
  202                571.94      3.65      6.49
  203                242.76      1.55      1.33
  204                571.94      1.62      0.90
  205                362.01      1.03      0.39
  207                322.68      0.92      0.31
  209                160.58      1.02      0.62
  211                596.28      1.69      0.97
  213                201.43      0.57      0.13
  215                174.13      0.49      0.10
  217               -239.88      0.68      0.18
  219               -248.28      0.70      0.19
  221                248.28      1.58      1.38
  223                 66.38      0.19      0.02
  225                 88.19      0.25      0.03
  229               4901.23      3.48      1.41
  231               4646.93      3.30      1.28
  233               4725.25      3.35      1.54
  235                101.57      0.29      0.04
  237                473.15      1.34      0.63
  238                365.60      1.04      0.39
  239                -18.73      0.05      0.00
  240                365.60      1.04      0.39
  241                365.60      1.04      0.39
  243                364.49      0.58      0.10
  245                283.55      0.45      0.06
  247                231.08      0.37      0.04
  249                113.08      0.18      0.01
  251                 52.89      0.11      0.01
  257                 29.18      0.08      0.00
  261                 34.63      0.22      0.04
  263                 21.09      0.06      0.00
  269                 69.84      0.20      0.02
  271                 68.62      0.44      0.13
  273                -18.75      0.05      0.00
  275                -24.99      0.07      0.00
  277                  5.56      0.02      0.00
  281                -30.55      0.12      0.01
  283                -50.86      0.14      0.01
  285                  5.23      0.01      0.00
  287               -125.86      0.51      0.13
  289                323.91      1.32      0.76
  291                 69.79      0.29      0.04
  293                 76.56      0.49      0.16
  295                -45.63      0.13      0.01
  297                486.31      3.10      4.81
  299                233.64      1.49      1.24
  301                233.64      1.49      1.24
  303                252.67      1.61      1.43
  305                147.64      0.42      0.07
  307                400.30      1.14      0.47
  309                201.30      1.28      0.94
  311                -27.17      0.08      0.00
  313                447.27      1.27      0.57
  315              -2007.83      1.42      0.31
  317                116.69      0.74      0.34
  319                -15.12      0.04      0.00
  321               7626.62      3.46      1.08
  323               -135.42      0.38      0.06
  325                149.01      0.95      0.54
  329              13152.93      5.97      3.01
  330                  0.00      0.00      0.00
  333                 -0.00      0.00      0.00
  10                   0.00      0.00      0.00  Pump
  335              13152.93      0.00    -93.49  Pump
   
   
  Node Results at 0:25:00 hrs:
  --------------------------------------------------------
                     Demand      Head  Pressure  Chemical
  Node                  gpm        ft       psi      mg/L
  --------------------------------------------------------
  10                   0.00    145.77     -0.53      0.00
  15                 657.17    122.70     39.30      0.00
  20                   0.00    158.35     12.72      0.00
  35                1640.31    145.71     57.72      0.00
  40                   0.00    145.22      5.77      0.00
  50                   0.00    139.41      9.93      0.00
  60                   0.00    209.02     90.57      0.00
  601                  0.00    302.52    131.08      0.00
  61                   0.00    302.52    131.08      0.00
  101                243.14    145.77     44.96      0.00
  103                170.50    145.74     44.52      0.00
  105                173.27    147.06     51.37      0.00
  107                 69.94    147.05     54.19      0.00
  109                296.19    145.74     54.35      0.00
  111                181.68    146.25     59.04      0.00
  113                 25.61    146.27     62.51      0.00
  115                 66.69    147.10     57.67      0.00
  117                150.67    150.25     59.21      0.00
  119                225.45    157.71     67.47      0.00
  120                  0.00    155.30     67.29      0.00
  121                 53.29    161.21     70.72      0.00
  123                  0.00    165.66     67.02      0.00
  125                 58.37    160.65     64.84      0.00
  127                 22.60    159.04     44.65      0.00
  129                  0.00    159.03     46.81      0.00
  131                 54.72    159.01     66.30      0.00
  139                  7.54    152.92     52.83      0.00
  141                 12.61    148.57     62.64      0.00
  143                  7.94    136.55     61.12      0.00
  145                 35.37    149.94     64.54      0.00
  147                 10.94    150.96     57.40      0.00
  149                 34.65    151.39     58.66      0.00
  151                184.93    155.56     52.89      0.00
  153                 56.54    155.66     38.76      0.00
  157                 66.29    155.24     61.59      0.00
  159                 52.89    151.82     63.18      0.00
  161                 20.22    149.50     63.05      0.00
  163                 12.06    149.03     62.41      0.00
  164                  0.00    149.03     62.41      0.00
  166                  3.33    149.03     65.44      0.00
  167                 18.64    147.12     65.92      0.00
  169                  0.00    147.12     65.92      0.00
  171                 50.36    146.01     65.00      0.00
  173                  0.00    145.98     64.99      0.00
  177                 74.46    145.71     59.67      0.00
  179                  0.00    145.70     59.67      0.00
  181                  0.00    145.72     59.67      0.00
  183                  0.00    145.71     58.37      0.00
  184                  0.00    144.37     55.62      0.00
  185                 32.83    145.03     55.91      0.00
  187                  0.00    145.82     57.77      0.00
  189                138.14    146.13     61.58      0.00
  191                104.83    146.15     52.50      0.00
  193                 91.28    146.25     55.57      0.00
  195                  0.00    146.32     56.68      0.00
  197                 21.81    146.17     53.37      0.00
  199                152.73    140.31     61.66      0.00
  201                 57.10    139.49     60.40      0.00
  203               4725.25    139.31     59.50      0.00
  204                  0.00    145.54     53.96      0.00
  205                 83.66    140.28     51.68      0.00
  206                  0.00    139.33     59.94      0.00
  207                 88.82    139.51     56.55      0.00
  208                  0.00    139.11     53.35      0.00
[...]
  219                 64.05    139.43     58.68      0.00
  225                 35.34    139.44     56.95      0.00
  229                 99.48    139.53     55.91      0.00
  231                 25.54    139.52     58.29      0.00
  237                 24.20    139.63     54.43      0.00
  239                 69.15    139.62     54.86      0.00
  241                  0.00    139.62     54.86      0.00
  243                  6.73    139.62     54.43      0.00
  247                109.09    139.62     52.70      0.00
  249                  0.00    139.62     52.70      0.00
  251                 37.45    139.62     47.50      0.00
  253                 84.51    139.65     44.91      0.00
  255                 62.60    139.72     48.84      0.00
  257                  0.00    152.30     58.63      0.00
  259                  0.00    151.88     54.98      0.00
  261                  0.00    150.35     65.15      0.00
  263                  0.00    150.19     65.08      0.00
  265                  0.00    149.11     64.61      0.00
  267                  0.00    147.49     54.81      0.00
  269                  0.00    147.95     64.11      0.00
  271                  0.00    147.55     61.33      0.00
  273                  0.00    142.33     58.21      0.00
  275                  0.00    141.66     57.05      0.00
  River           -13203.30    220.00      0.00      0.00  Reservoir
  Lake                 0.00    167.00      0.00      0.00  Reservoir
  1                 -430.43    148.14      7.04      0.00  Tank
  2                 -297.09    140.32     10.32      0.00  Tank
  3                 1080.85    159.86     13.37      0.00  Tank
   
   
  Link Results at 23:55:00 hrs:
  ----------------------------------------------
                       Flow  Velocity  Headloss
  Link                  gpm       fps   /1000ft
  ----------------------------------------------
  20               -1080.85      0.05      0.00
  40                 430.43      0.02      0.00
  50                 297.09      0.01      0.00
  60               13203.30      9.36      8.98
  101                  0.00      0.00      0.00
  103                129.07      0.21      0.01
  105               -423.49      1.20      0.52
  107                 -2.50      0.01      0.00
  109                -77.39      0.12      0.01
  111               -436.06      1.24      0.54
  112                426.74      1.21      0.52
  113               -166.47      0.47      0.09
  114                 93.49      0.60      0.23
  115                -87.19      0.56      0.20
  116               -104.00      0.30      0.04
  117                630.81      1.79      1.08
  119               -688.17      1.95      1.27
  120               1148.29      3.26      3.27
  121               1021.40      2.90      2.64
  122                353.15      2.25      2.66
  123               9190.70      4.17      1.53
  125              11263.24      5.11      2.23
  129               1654.86      1.17      0.22
  131               1393.08      0.99      0.16
  133              -1080.85      1.10      0.24
  135                284.85      0.20      0.01
  137                 66.26      0.11      0.00
  145                218.59      1.40      1.09
  147                209.46      1.34      1.01
  149               -319.88      2.04      2.21
  151               -310.27      1.98      2.09
  153                125.68      0.36      0.05
  155                168.51      0.48      0.09
  159               -181.76      0.52      0.11
  161               -223.72      1.43      1.14
  163               -122.64      0.35      0.05
  169                191.10      1.22      0.85
  171                325.03      0.92      0.32
  173               7444.38      3.38      1.03
  175               7364.11      3.34      1.01
  177               7300.06      3.31      1.00
  179               7022.24      3.19      0.93
  180                  4.03      0.01      0.00
  181                  4.03      0.01      0.00
  183               6792.48      3.08      0.87
  185                -22.57      0.14      0.02
  186                285.42      1.82      1.79
  187               6164.22      2.80      0.73
  189               4711.80      2.14      0.44
  191              -1391.45      0.99      0.16
  193              -1627.25      1.15      0.21
  195               -124.95      0.35      0.05
  197               -215.11      0.61      0.15
  199                215.32      0.61      0.15
  201                430.43      1.22      0.53
  202                536.84      3.43      5.77
  203                291.18      1.86      1.86
  204                536.84      1.52      0.80
  205                285.42      0.81      0.25
  207                 75.86      0.22      0.02
  209                201.16      1.28      0.94
  211                605.69      1.72      1.00
  213                 84.25      0.24      0.03
  215                -50.54      0.14      0.01
  217               -300.47      0.85      0.27
  219               -253.33      0.72      0.20
  221                253.33      1.62      1.44
  223                -89.28      0.25      0.03
  225                -62.87      0.18      0.02
  229               4711.80      3.34      1.32
  231               4371.77      3.10      1.14
  233               4247.81      3.01      1.26
  235                155.08      0.44      0.08
  237                482.07      1.37      0.66
  238                537.87      1.53      0.80
  239                163.35      0.46      0.09
  240                537.87      1.53      0.80
  241                537.87      1.53      0.80
  243                536.52      0.86      0.20
  245                357.93      0.57      0.09
  247                279.82      0.45      0.06
  249                136.93      0.22      0.02
  251                 64.05      0.13      0.01
  257                 35.34      0.10      0.01
  261                 56.50      0.36      0.09
  263                 25.54      0.07      0.00
  269                165.15      0.47      0.09
  271                 68.52      0.44      0.13
  273                 72.43      0.21      0.02
  275                  5.72      0.02      0.00
  277                  6.73      0.02      0.00
  281                 -1.00      0.00      0.00
  283                 -2.44      0.01      0.00
  285                -17.64      0.05      0.00
  287                -92.45      0.38      0.07
  289                297.09      1.21      0.65
  291                 84.51      0.35      0.06
  293                 57.52      0.37      0.09
  295                -20.08      0.06      0.00
  297                480.04      3.06      4.69
  299                230.75      1.47      1.21
  301                230.75      1.47      1.21
  303                249.29      1.59      1.39
  305                150.78      0.43      0.08
  307                400.07      1.13      0.46
  309                211.13      1.35      1.02
  311               -261.67      0.74      0.21
  313                494.84      1.40      0.69
  315              -1502.30      1.07      0.18
  317                108.54      0.69      0.30
  319                 46.54      0.13      0.01
  321               7003.61      3.18      0.92
  323                 54.81      0.16      0.01
  325                110.85      0.71      0.31
  329              13203.30      5.99      3.03
  330                  0.00      0.00      0.00
  333                 -0.00      0.00      0.00
  10                   0.00      0.00      0.00  Pump
  335              13203.30      0.00    -93.04  Pump
   
   
  Node Results at 24:00:00 hrs:
  --------------------------------------------------------
                     Demand      Head  Pressure  Chemical
  Node                  gpm        ft       psi      mg/L
  --------------------------------------------------------
  10                   0.00    148.03      0.45      0.00
  15                 657.17    124.48     40.07      0.00
  20                   0.00    159.90     13.39      0.00
  35                1640.31    148.11     58.76      0.00
  40                   0.00    148.09      7.02      0.00
  50                   0.00    140.22     10.28      0.00
  60                   0.00    209.11     90.61      0.00
  601                  0.00    303.14    131.35      0.00
  61                   0.00    303.14    131.35      0.00
  101                243.14    148.03     45.94      0.00
  103                170.50    148.00     45.50      0.00
  105                173.27    149.29     52.34      0.00
  107                 69.94    149.28     55.15      0.00
  109                296.19    148.00     55.33      0.00
  111                181.68    148.53     60.03      0.00
  113                 25.61    148.55     63.50      0.00
  115                 66.69    149.34     58.64      0.00
  117                150.67    152.37     60.13      0.00
  119                225.45    159.63     68.30      0.00
  120                  0.00    157.29     68.15      0.00
  121                 53.29    163.02     71.50      0.00
  123                  0.00    167.43     67.78      0.00
  125                 58.37    162.41     65.61      0.00
  127                 22.60    160.67     45.35      0.00
  129                  0.00    160.65     47.51      0.00
  131                 54.72    160.63     67.00      0.00
  139                  7.54    154.64     53.57      0.00
  141                 12.61    150.35     63.41      0.00
  143                  7.94    138.34     61.89      0.00
  145                 35.37    151.74     65.32     20.00
  147                 10.94    152.78     58.18     20.00
  149                 34.65    153.21     59.45     20.00
  151                184.93    157.43     53.70      0.00
  153                 56.54    157.53     39.57      0.00
  157                 66.29    157.24     62.45      0.00
  159                 52.89    153.94     64.10      0.00
  161                 20.22    151.71     64.00      0.00
  163                 12.06    151.26     63.37      0.00
  164                  0.00    151.26     63.37      0.00
  166                  3.33    151.26     66.41      0.00
  167                 18.64    149.42     66.91      0.00
  169                  0.00    149.42     66.91      0.00
  171                 50.36    148.34     66.01      0.00
  173                  0.00    148.32     66.00      0.00
  177                 74.46    148.12     60.71      0.00
  179                  0.00    148.12     60.71      0.00
  181                  0.00    148.12     60.71      0.00
  183                  0.00    148.12     59.41      0.00
  184                  0.00    146.67     56.62      0.00
  185                 32.83    147.35     56.91      0.00
  187                  0.00    148.13     58.77      0.00
  189                138.14    148.46     62.59      0.00
  191                104.83    148.45     53.49      0.00
  193                 91.28    148.54     56.56      0.00
  195                  0.00    148.61     57.68      0.00
  197                 21.81    148.46     54.36      0.00
  199                152.73    142.43     62.58      0.00
  201                 57.10    141.59     61.31      0.00
  203               4725.25    141.40     60.40      0.00
  204                  0.00    147.86     54.97      0.00
  205                 83.66    142.39     52.60      0.00
  206                  0.00    141.26     60.77      0.00
  207                 88.82    141.56     57.44      0.00
  208                  0.00    140.91     54.13      0.00
  209                  1.11    140.32     61.67      0.00
  211                 11.10    140.12     57.68      0.00
  213                 17.84    140.05     57.65      0.00
  215                118.00    139.87     57.57      0.00
  217                 31.00    139.86     58.00      0.00
  219                 52.89    139.85     58.86      0.00
  225                 29.18    139.85     57.13      0.00
  229                 82.15    139.87     56.05      0.00
  231                 21.09    139.86     58.44      0.00
  237                 19.98    139.92     54.56      0.00
  239                 57.10    139.90     54.99      0.00
  241                  0.00    139.90     54.99      0.00
  243                  5.56    139.90     54.55      0.00
  247                 90.09    139.90     52.82      0.00
  249                  0.00    139.90     52.82      0.00
  251                 30.92    139.90     47.62      0.00
  253                 69.79    139.88     45.01      0.00
  255                 51.70    139.93     48.93      0.00
  257                  0.00    154.27     59.48      0.00
  259                  0.00    153.85     55.83      0.00
  261                  0.00    152.33     66.00      0.00
  263                  0.00    152.17     65.94      0.00
  265                  0.00    150.01     65.00      0.00
  267                  0.00    148.55     55.27      0.00
  269                  0.00    148.82     64.48      0.00
  271                  0.00    148.18     61.61      0.00
  273                  0.00    142.39     58.23      0.00
  275                  0.00    141.59     57.02      0.00
  River           -13091.50    220.00      0.00      0.00  Reservoir
  Lake                 0.00    167.00      0.00      0.00  Reservoir
  1                   77.42    148.09      7.02      0.00  Tank
  2                 -201.43    140.22     10.28      0.00  Tank
  3                 2291.21    159.90     13.39      0.00  Tank
   
   
  Link Results at 24:00:00 hrs:
  ----------------------------------------------
                       Flow  Velocity  Headloss
  Link                  gpm       fps   /1000ft
  ----------------------------------------------
  20               -2291.21      0.10      0.00
  40                 -77.42      0.00      0.00
  50                 201.43      0.01      0.00
  60               13091.50      9.28      8.84
  101                  0.00      0.00      0.00
  103                170.52      0.27      0.02
  105               -413.65      1.17      0.49
  107                 37.25      0.11      0.01
  109                  0.02      0.00      0.00
  111               -296.17      0.84      0.27
  112                498.35      1.41      0.70
  113                -60.14      0.17      0.01
  114                125.83      0.80      0.39
  115                -32.68      0.21      0.03
  116                 40.08      0.11      0.01
  117                624.18      1.77      1.06
  119               -723.56      2.05      1.39
  120               1135.52      3.22      3.21
  121               1019.51      2.89      2.63
  122                362.88      2.32      2.79
  123               9714.36      4.41      1.69
  125              13091.50      5.94      2.94
  129               2960.97      2.10      0.65
  131               2686.39      1.91      0.54
  133              -2291.21      2.34      0.98
  135                372.58      0.26      0.01
  137                 54.72      0.09      0.00
  145                317.86      2.03      2.19
  147                310.32      1.98      2.09
  149               -665.11      4.25      8.58
  151               -657.17      4.19      8.39
  153                367.39      1.04      0.40
  155                402.76      1.14      0.47
  159               -413.70      1.17      0.49
  161               -448.35      2.86      4.13
  163               -159.68      0.45      0.08
  169                216.21      1.38      1.07
  171                473.61      1.34      0.64
  173               7879.78      3.58      1.15
  175               7813.49      3.55      1.13
  177               7760.60      3.52      1.12
  179               7495.69      3.40      1.05
  180                  3.33      0.01      0.00
  181                  3.33      0.01      0.00
  183               7281.31      3.30      0.99
  185                -18.64      0.12      0.01
  186                360.22      2.30      2.76
  187               6680.34      3.03      0.85
  189               5008.85      2.27      0.50
  191              -1621.14      1.15      0.21
  193              -1640.31      1.16      0.22
  195                122.90      0.35      0.05
  197                 48.44      0.14      0.01
  199                -28.98      0.08      0.00
  201                -77.42      0.22      0.02
  202                586.79      3.75      6.81
  203                259.40      1.66      1.50
  204                586.79      1.66      0.94
  205                360.22      1.02      0.38
  207                288.37      0.82      0.25
  209                165.14      1.05      0.65
  211                582.33      1.65      0.93
  213                195.09      0.55      0.12
  215                151.39      0.43      0.08
  217               -241.09      0.68      0.18
  219               -244.69      0.69      0.19
  221                244.69      1.56      1.35
  223                 58.83      0.17      0.01
  225                 80.64      0.23      0.02
  229               5008.85      3.55      1.47
  231               4741.37      3.36      1.33
  233               4725.25      3.35      1.54
  235                114.76      0.33      0.05
  237                497.88      1.41      0.70
  238                488.08      1.38      0.67
  239                 79.02      0.22      0.02
  240                488.08      1.38      0.67
  241                488.08      1.38      0.67
  243                486.97      0.78      0.16
  245                303.93      0.48      0.07
  247                231.08      0.37      0.04
  249                113.08      0.18      0.01
  251                 52.89      0.11      0.01
  257                 29.18      0.08      0.00
  261                 55.00      0.35      0.08
  263                 21.09      0.06      0.00
  269                171.94      0.49      0.10
  271                 48.24      0.31      0.07
  273                103.72      0.29      0.04
  275                 20.91      0.06      0.00
  277                  5.56      0.02      0.00
  281                 15.35      0.06      0.00
  283                 25.71      0.07      0.00
  285                -25.71      0.07      0.00
  287                -49.03      0.20      0.02
  289                201.43      0.82      0.32
  291                 69.79      0.29      0.04
  293                 30.92      0.20      0.03
  295                  0.01      0.00      0.00
  297                478.90      3.06      4.67
  299                230.08      1.47      1.20
  301                230.08      1.47      1.20
  303                248.82      1.59      1.39
  305                145.28      0.41      0.07
  307                394.10      1.12      0.45
  309                198.99      1.27      0.92
  311                -47.60      0.14      0.01
  313                440.25      1.25      0.55
  315              -1763.21      1.25      0.25
  317                120.01      0.77      0.36
  319                 -5.25      0.01      0.00
  321               7480.30      3.40      1.04
  323                -40.99      0.12      0.01
  325                142.08      0.91      0.49
  329              13091.50      5.94      2.98
  330                  0.00      0.00      0.00
  333                 -0.00      0.00      0.00
  10                   0.00      0.00      0.00  Pump
  335              13091.50      0.00    -94.03  Pump
   
  Analysis ended Wed May 06 16:50:28 2020
