  Page 1                                    Wed May 06 16:51:22 2020

  ******************************************************************
  *                           E P A N E T                          *
  *                   Hydraulic and Water Quality                  *
  *                   Analysis for Pipe Networks                   *
  *                         Version 2.00.12                        *
  ******************************************************************
  
  Analysis begun Wed May 06 16:51:22 2020

   
  Hydraulic Status:
  -----------------------------------------------------------------------
     0:00:00: Balanced after 5 trials
     0:00:00: Reservoir River is emptying
     0:00:00: Reservoir Lake is closed
     0:00:00: Tank 1 is filling at 13.10 ft
     0:00:00: Tank 2 is emptying at 23.50 ft
     0:00:00: Tank 3 is filling at 29.00 ft
   
     0:05:00: Balanced after 2 trials
   
     0:10:00: Balanced after 2 trials
   
     0:15:00: Balanced after 2 trials
   
     0:20:00: Balanced after 2 trials
   
     0:25:00: Balanced after 2 trials
   
     0:30:00: Balanced after 2 trials
   
     0:35:00: Balanced after 2 trials
   
     0:40:00: Balanced after 2 trials
   
     0:45:00: Balanced after 2 trials
   
     0:50:00: Balanced after 2 trials
   
     0:55:00: Balanced after 2 trials
   
     1:00:00: Pump 10 changed by timer control
     1:00:00: Balanced after 7 trials
     1:00:00: Reservoir Lake is emptying
     1:00:00: Pump 10 changed from closed to open
   
     1:05:00: Balanced after 2 trials
   
     1:10:00: Balanced after 2 trials
   
     1:15:00: Balanced after 2 trials
   
     1:20:00: Balanced after 2 trials
   
     1:25:00: Balanced after 2 trials
   
     1:30:00: Balanced after 2 trials
   
     1:35:00: Balanced after 2 trials
   
     1:40:00: Balanced after 2 trials
   
     1:45:00: Balanced after 2 trials
   
     1:50:00: Balanced after 2 trials
   
     1:55:00: Balanced after 2 trials
   
     2:00:00: Balanced after 4 trials
     2:00:00: Tank 2 is filling at 20.55 ft
   
     2:05:00: Balanced after 1 trials
   
     2:10:00: Balanced after 1 trials
   
     2:15:00: Balanced after 1 trials
   
     2:20:00: Balanced after 1 trials
   
     2:25:00: Balanced after 1 trials
   
     2:30:00: Balanced after 1 trials
   
     2:35:00: Balanced after 1 trials
   
     2:40:00: Balanced after 1 trials
   
     2:45:00: Balanced after 1 trials
   
     2:50:00: Balanced after 1 trials
   
     2:55:00: Balanced after 1 trials
   
     3:00:00: Balanced after 3 trials
   
     3:05:00: Balanced after 1 trials
   
     3:10:00: Balanced after 1 trials
   
     3:15:00: Balanced after 1 trials
   
     3:20:00: Balanced after 1 trials
   
     3:25:00: Balanced after 1 trials
   
     3:30:00: Balanced after 1 trials
   
     3:35:00: Balanced after 1 trials
   
     3:40:00: Balanced after 1 trials
   
     3:45:00: Balanced after 1 trials
   
     3:50:00: Balanced after 1 trials
   
     3:55:00: Balanced after 1 trials
   
     4:00:00: Balanced after 3 trials
   
     4:05:00: Balanced after 1 trials
   
     4:10:00: Balanced after 1 trials
   
     4:12:02: Pump 335 changed by Tank 1 control
     4:12:02: Pipe 330 changed by Tank 1 control
     4:12:02: Balanced after 4 trials
     4:12:02: Pipe 330 changed from closed to open
     4:12:02: Pump 335 changed from open to closed
   
     4:15:00: Balanced after 1 trials
   
     4:20:00: Balanced after 2 trials
   
     4:25:00: Balanced after 2 trials
   
     4:30:00: Balanced after 2 trials
   
     4:35:00: Balanced after 2 trials
   
     4:40:00: Balanced after 2 trials
   
     4:45:00: Balanced after 2 trials
   
     4:50:00: Balanced after 2 trials
   
     4:55:00: Balanced after 2 trials
   
     5:00:00: Balanced after 3 trials
     5:00:00: Tank 3 is emptying at 34.34 ft
   
     5:05:00: Balanced after 2 trials
   
     5:10:00: Balanced after 2 trials
   
     5:15:00: Balanced after 2 trials
   
     5:20:00: Balanced after 2 trials
   
     5:25:00: Balanced after 2 trials
   
     5:30:00: Balanced after 2 trials
   
     5:35:00: Balanced after 2 trials
   
     5:40:00: Balanced after 2 trials
   
     5:45:00: Balanced after 2 trials
   
     5:50:00: Balanced after 2 trials
   
     5:55:00: Balanced after 2 trials
   
     6:00:00: Balanced after 3 trials
     6:00:00: Tank 3 is filling at 34.26 ft
   
     6:05:00: Balanced after 1 trials
   
     6:10:00: Balanced after 1 trials
   
     6:15:00: Balanced after 1 trials
   
     6:20:00: Balanced after 1 trials
   
     6:25:00: Balanced after 1 trials
   
     6:30:00: Balanced after 1 trials
   
     6:35:00: Balanced after 1 trials
   
     6:40:00: Balanced after 1 trials
   
     6:45:00: Balanced after 1 trials
   
     6:50:00: Balanced after 1 trials
   
     6:55:00: Balanced after 1 trials
   
     7:00:00: Balanced after 3 trials
   
     7:05:00: Balanced after 1 trials
   
     7:10:00: Balanced after 1 trials
   
     7:15:00: Balanced after 1 trials
   
     7:20:00: Balanced after 1 trials
   
     7:25:00: Balanced after 1 trials
   
     7:30:00: Balanced after 1 trials
   
     7:35:00: Balanced after 1 trials
   
     7:40:00: Balanced after 1 trials
   
     7:45:00: Balanced after 1 trials
   
     7:50:00: Balanced after 1 trials
   
     7:55:00: Balanced after 1 trials
   
     8:00:00: Balanced after 3 trials
   
     8:05:00: Balanced after 1 trials
   
     8:10:00: Balanced after 1 trials
   
     8:15:00: Balanced after 1 trials
   
     8:20:00: Balanced after 1 trials
   
     8:25:00: Balanced after 1 trials
   
     8:30:00: Balanced after 1 trials
   
     8:35:00: Balanced after 1 trials
   
     8:40:00: Balanced after 1 trials
   
     8:45:00: Balanced after 1 trials
   
     8:50:00: Balanced after 1 trials
   
     8:55:00: Balanced after 1 trials
   
     9:00:00: Balanced after 4 trials
     9:00:00: Tank 3 is emptying at 35.35 ft
   
     9:05:00: Balanced after 2 trials
   
     9:10:00: Balanced after 2 trials
   
     9:15:00: Balanced after 2 trials
   
     9:20:00: Balanced after 2 trials
   
     9:25:00: Balanced after 2 trials
   
     9:30:00: Balanced after 2 trials
   
     9:35:00: Balanced after 2 trials
   
     9:40:00: Balanced after 2 trials
   
     9:45:00: Balanced after 2 trials
   
     9:50:00: Balanced after 2 trials
   
     9:55:00: Balanced after 2 trials
   
    10:00:00: Balanced after 3 trials
    10:00:00: Tank 1 is emptying at 22.57 ft
   
    10:05:00: Balanced after 1 trials
   
    10:10:00: Balanced after 1 trials
   
    10:15:00: Balanced after 1 trials
   
    10:20:00: Balanced after 1 trials
   
    10:25:00: Balanced after 1 trials
   
    10:30:00: Balanced after 1 trials
   
    10:35:00: Balanced after 1 trials
   
    10:40:00: Balanced after 1 trials
   
    10:45:00: Balanced after 1 trials
   
    10:50:00: Balanced after 1 trials
   
    10:55:00: Balanced after 1 trials
   
    11:00:00: Balanced after 3 trials
    11:00:00: Tank 1 is filling at 22.34 ft
   
    11:05:00: Balanced after 2 trials
   
    11:10:00: Balanced after 2 trials
   
    11:15:00: Balanced after 2 trials
   
    11:20:00: Balanced after 2 trials
   
    11:25:00: Balanced after 2 trials
   
    11:30:00: Balanced after 2 trials
   
    11:35:00: Balanced after 2 trials
   
    11:40:00: Balanced after 2 trials
   
    11:45:00: Balanced after 2 trials
   
    11:50:00: Balanced after 2 trials
   
    11:55:00: Balanced after 2 trials
   
    12:00:00: Balanced after 3 trials
    12:00:00: Tank 1 is emptying at 22.43 ft
    12:00:00: Tank 2 is emptying at 27.93 ft
   
    12:05:00: Balanced after 1 trials
   
    12:10:00: Balanced after 1 trials
   
    12:15:00: Balanced after 1 trials
   
    12:20:00: Balanced after 1 trials
   
    12:25:00: Balanced after 1 trials
   
    12:30:00: Balanced after 1 trials
   
    12:35:00: Balanced after 1 trials
   
    12:40:00: Balanced after 1 trials
   
    12:45:00: Balanced after 1 trials
   
    12:50:00: Balanced after 1 trials
   
    12:55:00: Balanced after 1 trials
   
    13:00:00: Balanced after 3 trials
    13:00:00: Tank 2 is filling at 27.89 ft
   
    13:05:00: Balanced after 1 trials
   
    13:10:00: Balanced after 1 trials
   
    13:15:00: Balanced after 1 trials
   
    13:20:00: Balanced after 1 trials
   
    13:25:00: Balanced after 1 trials
   
    13:30:00: Balanced after 1 trials
   
    13:35:00: Balanced after 1 trials
   
    13:40:00: Balanced after 1 trials
   
    13:45:00: Balanced after 1 trials
   
    13:50:00: Balanced after 1 trials
   
    13:55:00: Balanced after 1 trials
   
    14:00:00: Balanced after 3 trials
    14:00:00: Tank 1 is filling at 21.98 ft
   
    14:05:00: Balanced after 1 trials
   
    14:10:00: Balanced after 1 trials
   
    14:15:00: Balanced after 1 trials
   
    14:20:00: Balanced after 1 trials
   
    14:25:00: Balanced after 1 trials
   
    14:30:00: Balanced after 1 trials
   
    14:35:00: Balanced after 1 trials
   
    14:40:00: Balanced after 1 trials
   
    14:45:00: Balanced after 1 trials
    14:45:00: Tank 1 is closed at 22.00 ft
   
    14:50:00: Balanced after 1 trials
    14:50:00: Tank 1 is emptying at 22.00 ft
   
    14:55:00: Balanced after 1 trials
   
    15:00:00: Pump 10 changed by timer control
    15:00:00: Balanced after 5 trials
    15:00:00: Reservoir Lake is closed
    15:00:00: Tank 2 is emptying at 28.39 ft
    15:00:00: Pump 10 changed from open to closed
   
    15:05:00: Balanced after 2 trials
   
    15:10:00: Balanced after 2 trials
   
    15:15:00: Balanced after 2 trials
   
    15:20:00: Balanced after 2 trials
   
    15:25:00: Balanced after 2 trials
   
    15:30:00: Balanced after 1 trials
   
    15:35:00: Balanced after 1 trials
   
    15:40:00: Balanced after 1 trials
   
    15:45:00: Balanced after 1 trials
   
    15:50:00: Balanced after 1 trials
   
    15:55:00: Balanced after 1 trials
   
    16:00:00: Balanced after 3 trials
    16:00:00: Tank 2 is filling at 28.13 ft
   
    16:05:00: Balanced after 2 trials
   
    16:10:00: Balanced after 2 trials
   
    16:15:00: Balanced after 2 trials
   
    16:20:00: Balanced after 2 trials
   
    16:25:00: Balanced after 2 trials
   
    16:30:00: Balanced after 2 trials
   
    16:35:00: Balanced after 2 trials
   
    16:40:00: Balanced after 2 trials
   
    16:45:00: Balanced after 2 trials
   
    16:50:00: Balanced after 2 trials
   
    16:55:00: Balanced after 2 trials
   
    17:00:00: Balanced after 3 trials
    17:00:00: Tank 2 is emptying at 28.27 ft
   
    17:05:00: Balanced after 1 trials
   
    17:10:00: Balanced after 1 trials
   
    17:15:00: Balanced after 1 trials
   
    17:20:00: Balanced after 1 trials
   
    17:25:00: Balanced after 1 trials
   
    17:30:00: Balanced after 1 trials
   
    17:35:00: Balanced after 1 trials
   
    17:40:00: Balanced after 1 trials
   
    17:45:00: Balanced after 1 trials
   
    17:50:00: Balanced after 1 trials
   
    17:55:00: Balanced after 1 trials
   
    18:00:00: Balanced after 3 trials
   
    18:05:00: Balanced after 1 trials
   
    18:10:00: Balanced after 1 trials
   
    18:15:00: Balanced after 1 trials
   
    18:20:00: Balanced after 1 trials
   
    18:25:00: Balanced after 1 trials
   
    18:30:00: Balanced after 1 trials
   
    18:35:00: Balanced after 1 trials
   
    18:40:00: Balanced after 1 trials
   
    18:45:00: Balanced after 1 trials
   
    18:50:00: Balanced after 1 trials
   
    18:55:00: Balanced after 1 trials
   
    19:00:00: Balanced after 3 trials
   
    19:05:00: Balanced after 1 trials
   
    19:10:00: Balanced after 1 trials
   
    19:15:00: Balanced after 1 trials
   
    19:20:00: Balanced after 1 trials
   
    19:25:00: Balanced after 1 trials
   
    19:30:00: Balanced after 1 trials
   
    19:35:00: Balanced after 1 trials
   
    19:40:00: Balanced after 1 trials
   
    19:45:00: Balanced after 1 trials
   
    19:50:00: Balanced after 1 trials
   
    19:55:00: Balanced after 1 trials
   
    20:00:00: Balanced after 3 trials
   
    20:05:00: Balanced after 1 trials
   
    20:10:00: Balanced after 1 trials
   
    20:15:00: Balanced after 1 trials
   
    20:20:00: Balanced after 1 trials
   
    20:25:00: Balanced after 1 trials
   
    20:30:00: Balanced after 1 trials
   
    20:35:00: Balanced after 1 trials
   
    20:40:00: Balanced after 1 trials
   
    20:45:00: Balanced after 1 trials
   
    20:50:00: Balanced after 1 trials
   
    20:55:00: Balanced after 1 trials
   
    21:00:00: Balanced after 3 trials
   
    21:05:00: Balanced after 2 trials
   
    21:10:00: Balanced after 2 trials
   
    21:15:00: Balanced after 2 trials
   
    21:17:55: Pump 335 changed by Tank 1 control
    21:17:55: Pipe 330 changed by Tank 1 control
    21:17:55: Balanced after 5 trials
    21:17:55: Tank 1 is filling at 17.10 ft
    21:17:55: Tank 3 is filling at 29.84 ft
    21:17:55: Pipe 330 changed from open to closed
    21:17:55: Pump 335 changed from closed to open
   
    21:20:00: Balanced after 1 trials
   
    21:25:00: Balanced after 2 trials
   
    21:30:00: Balanced after 2 trials
   
    21:35:00: Balanced after 2 trials
   
    21:40:00: Balanced after 2 trials
   
    21:45:00: Balanced after 2 trials
   
    21:50:00: Balanced after 2 trials
   
    21:55:00: Balanced after 2 trials
   
    22:00:00: Balanced after 3 trials
    22:00:00: Tank 1 is emptying at 17.32 ft
   
    22:05:00: Balanced after 2 trials
   
    22:10:00: Balanced after 2 trials
   
    22:15:00: Balanced after 2 trials
   
    22:20:00: Balanced after 2 trials
   
    22:25:00: Balanced after 2 trials
   
    22:30:00: Balanced after 2 trials
   
    22:35:00: Balanced after 2 trials
   
    22:40:00: Balanced after 2 trials
   
    22:45:00: Balanced after 2 trials
   
    22:50:00: Balanced after 2 trials
   
    22:55:00: Balanced after 2 trials
   
    23:00:00: Balanced after 3 trials
   
    23:05:00: Balanced after 2 trials
   
    23:10:00: Balanced after 2 trials
   
    23:15:00: Balanced after 2 trials
   
    23:20:00: Balanced after 2 trials
   
    23:25:00: Balanced after 2 trials
   
    23:30:00: Balanced after 2 trials
   
    23:35:00: Balanced after 2 trials
   
    23:40:00: Balanced after 2 trials
   
    23:45:00: Balanced after 2 trials
   
    23:50:00: Balanced after 2 trials
   
    23:55:00: Balanced after 2 trials
   
    24:00:00: Balanced after 4 trials
    24:00:00: Tank 1 is filling at 16.26 ft
    24:00:00: Tank 2 is filling at 22.93 ft
   
   
  Node Results at 0:00:00 hrs:
  --------------------------------------------------------
                     Demand      Head  Pressure  Chemical
  Node                  gpm        ft       psi      mg/L
  --------------------------------------------------------
  10                   0.00    146.69     -0.14      0.00
  15                 648.47    123.71     39.74      0.00
  20                   0.00    158.00     12.57      0.00
  35                1566.43    146.69     58.15      0.00
  40                   0.00    145.00      5.68      0.00
  50                   0.00    140.00     10.18      0.00
  60                   0.00    209.03     90.57      0.00
  601                  0.00    302.61    131.12      0.00
  61                   0.00    302.61    131.12      0.00
  101                241.24    146.69     45.36      0.00
  103                169.16    146.66     44.91      0.00
  105                171.92    147.93     51.75      0.00
  107                 69.39    147.92     54.56      0.00
  109                293.88    146.66     54.75      0.00
  111                180.26    147.18     59.44      0.00
  113                 25.41    147.20     62.92      0.00
  115                 66.17    147.98     58.05      0.00
  117                149.49    150.97     59.52      0.00
  119                223.69    158.13     67.65      0.00
  120                  0.00    155.82     67.51      0.00
  121                 52.87    161.46     70.83      0.00
  123                  0.00    165.90     67.12      0.00
  125                 57.91    160.80     64.91      0.00
  127                 22.43    158.87     44.57      0.00
  129                  0.00    158.85     46.73      0.00
  131                 54.29    158.84     66.22      0.00
  139                  7.48    153.07     52.89      0.00
  141                 12.51    148.95     62.81      0.00
  143                  7.87    137.22     61.41      0.00
  145                 35.09    150.33     64.70      0.00
  147                 10.86    151.35     57.56      0.00
  149                 34.38    151.78     58.83      0.00
  151                183.49    155.94     53.05      0.00
  153                 56.10    156.04     38.93      0.00
  157                 65.77    155.78     61.82      0.00
  159                 52.48    152.54     63.50      0.00
  161                 20.07    150.35     63.41      0.00
  163                 11.96    149.91     62.79      0.00
  164                  0.00    149.91     62.79      0.00
  166                  3.30    149.91     65.82      0.00
  167                 18.49    148.10     66.34      0.00
  169                  0.00    148.10     66.34      0.00
  171                 49.96    147.06     65.45      0.00
  173                  0.00    147.04     65.44      0.00
  177                 73.88    146.66     60.08      0.00
  179                  0.00    146.63     60.07      0.00
  181                  0.00    146.70     60.10      0.00
  183                  0.00    146.64     58.77      0.00
  184                  0.00    145.60     56.16      0.00
  185                 32.58    146.13     56.39      0.00
  187                  0.00    146.82     58.20      0.00
  189                137.06    147.09     62.00      0.00
  191                104.01    147.10     52.91      0.00
  193                 90.56    147.19     55.98      0.00
  195                  0.00    147.26     57.09      0.00
  197                 21.64    147.12     53.78      0.00
  199                151.54    142.32     62.53      0.00
  201                 56.65    141.66     61.34      0.00
  203               4069.69    141.52     60.45      0.00
  204                  0.00    146.57     54.41      0.00
  205                 83.01    142.27     52.55      0.00
  206                  0.00    141.24     60.77      0.00
  207                 88.13    141.56     57.44      0.00
  208                  0.00    140.87     54.11      0.00
  209                  1.10    140.24     61.63      0.00
  211                 11.01    140.02     57.64      0.00
  213                 17.70    139.95     57.61      0.00
  215                117.08    139.78     57.53      0.00
  217                 30.76    139.76     57.96      0.00
  219                 52.48    139.75     58.82      0.00
  225                 28.96    139.75     57.09      0.00
  229                 81.51    139.74     56.00      0.00
  231                 20.93    139.74     58.38      0.00
  237                 19.82    139.78     54.50      0.00
  239                 56.65    139.75     54.92      0.00
  241                  0.00    139.75     54.92      0.00
  243                  5.51    139.75     54.49      0.00
  247                 89.38    139.75     52.76      0.00
  249                  0.00    139.75     52.76      0.00
  251                 30.68    139.75     47.56      0.00
  253                 69.24    139.72     44.94      0.00
  255                 51.30    139.77     48.86      0.00
  257                  0.00    152.84     58.86      0.00
  259                  0.00    152.43     55.22      0.00
  261                  0.00    150.93     65.40      0.00
  263                  0.00    150.77     65.33      0.00
  265                  0.00    148.68     64.42      0.00
  267                  0.00    147.20     54.68      0.00
  269                  0.00    147.47     63.90      0.00
  271                  0.00    146.80     61.01      0.00
  273                  0.00    142.28     58.18      0.00
  275                  0.00    141.66     57.05      0.00
  River           -13143.16    220.00      0.00      0.00  Reservoir
  Lake                 0.00    167.00      0.00      0.00  Reservoir
  1                  718.27    145.00      5.68      0.00  Tank
  2                 -177.34    140.00     10.18      0.00  Tank
  3                 2446.53    158.00     12.57      0.00  Tank
   
   
  Link Results at 0:00:00 hrs:
  ----------------------------------------------
                       Flow  Velocity  Headloss
  Link                  gpm       fps   /1000ft
  ----------------------------------------------
  20               -2446.53      0.10      0.00
  40                -718.27      0.03      0.00
  50                 177.34      0.01      0.00
  60               13143.16      9.32      8.91
  101                  0.00      0.00      0.00
  103                169.28      0.27      0.02
  105               -410.52      1.16      0.49
  107                 37.05      0.11      0.01
  109                  0.12      0.00      0.00
  111               -293.76      0.83      0.26
  112                494.64      1.40      0.69
  113                -58.04      0.16      0.01
  114                125.00      0.80      0.39
  115                -32.35      0.21      0.03
  116                 41.55      0.12      0.01
  117                619.48      1.76      1.04
  119               -718.15      2.04      1.37
  120               1127.29      3.20      3.16
  121               1011.83      2.87      2.59
  122                359.83      2.30      2.75
  123               9624.85      4.37      1.67
  125              13143.16      5.97      2.97
  129               3105.61      2.20      0.71
  131               2834.50      2.01      0.60
  133              -2446.53      2.50      1.10
  135                365.54      0.26      0.01
  137                 54.29      0.09      0.00
  145                311.25      1.99      2.10
  147                303.77      1.94      2.01
  149               -656.34      4.19      8.37
  151               -648.47      4.14      8.19
  153                365.08      1.04      0.39
  155                400.17      1.14      0.46
  159               -411.03      1.17      0.49
  161               -445.41      2.84      4.08
  163               -157.10      0.45      0.08
  169                213.19      1.36      1.04
  171                471.80      1.34      0.63
  173               7802.06      3.54      1.13
  175               7736.29      3.51      1.11
  177               7683.81      3.49      1.10
  179               7419.31      3.37      1.03
  180                  3.30      0.01      0.00
  181                  3.30      0.01      0.00
  183               7202.85      3.27      0.97
  185                -18.49      0.12      0.01
  186                335.49      2.14      2.42
  187               6583.91      2.99      0.82
  189               4443.46      2.02      0.40
  191              -2090.49      1.48      0.34
  193              -1566.43      1.11      0.20
  195                670.10      1.90      1.21
  197                596.22      1.69      0.97
  199               -122.05      0.35      0.05
  201               -718.27      2.04      1.37
  202                512.34      3.27      5.29
  203                209.43      1.34      1.01
  204                512.34      1.45      0.73
  205                335.49      0.95      0.34
  207                331.48      0.94      0.33
  209                149.96      0.96      0.54
  211                600.44      1.70      0.99
  213                185.53      0.53      0.11
  215                164.09      0.47      0.09
  217               -232.53      0.66      0.17
  219               -244.44      0.69      0.19
  221                244.44      1.56      1.34
  223                 57.01      0.16      0.01
  225                 78.65      0.22      0.02
  229               4443.46      3.15      1.18
  231               4161.39      2.95      1.04
  233               4069.69      2.89      1.17
  235                130.54      0.37      0.06
  237                455.72      1.29      0.59
  238                506.79      1.44      0.72
  239                139.19      0.39      0.07
  240                506.79      1.44      0.72
  241                506.79      1.44      0.72
  243                505.68      0.81      0.18
  245                306.15      0.49      0.07
  247                229.27      0.37      0.04
  249                112.19      0.18      0.01
  251                 52.48      0.11      0.01
  257                 28.96      0.08      0.00
  261                 59.17      0.38      0.10
  263                 20.93      0.06      0.00
  269                188.52      0.53      0.12
  271                 43.26      0.28      0.05
  273                125.43      0.36      0.05
  275                 29.17      0.08      0.00
  277                  5.51      0.02      0.00
  281                 23.66      0.10      0.01
  283                 39.61      0.11      0.01
  285                -31.30      0.09      0.00
  287                -34.42      0.14      0.01
  289                177.34      0.72      0.25
  291                 69.24      0.28      0.04
  293                 22.38      0.14      0.02
  295                  8.31      0.02      0.00
  297                475.29      3.03      4.61
  299                228.35      1.46      1.19
  301                228.35      1.46      1.19
  303                246.94      1.58      1.37
  305                144.19      0.41      0.07
  307                391.13      1.11      0.45
  309                201.20      1.28      0.94
  311                -37.11      0.11      0.01
  313                454.41      1.29      0.59
  315              -2236.53      1.59      0.38
  317                104.15      0.66      0.28
  319                 26.39      0.07      0.00
  321               7404.05      3.36      1.02
  323                 35.04      0.10      0.01
  325                146.04      0.93      0.52
  329              13143.16      5.97      3.00
  330                  0.00      0.00      0.00
  333                 -0.00      0.00      0.00
  10                   0.00      0.00      0.00  Pump
  335              13143.16      0.00    -93.57  Pump
   
   
  Node Results at 0:05:00 hrs:
  --------------------------------------------------------
                     Demand      Head  Pressure  Chemical
  Node                  gpm        ft       psi      mg/L
  --------------------------------------------------------
  10                   0.00    146.75     -0.11      0.00
  15                 648.47    123.78     39.77      0.00
  20                   0.00    158.08     12.60      0.00
  35                1566.43    146.75     58.17      0.00
  40                   0.00    145.08      5.71      0.00
  50                   0.00    139.94     10.16      0.00
  60                   0.00    209.04     90.58      0.00
  601                  0.00    302.63    131.13      0.00
  61                   0.00    302.63    131.13      0.00
  101                241.24    146.75     45.39      0.00
  103                169.16    146.72     44.94      0.00
  105                171.92    147.99     51.77      0.00
  107                 69.39    147.98     54.59      0.00
  109                293.88    146.72     54.78      0.00
  111                180.26    147.24     59.47      0.00
  113                 25.41    147.26     62.94      0.00
  115                 66.17    148.04     58.08      0.00
  117                149.49    151.03     59.55      0.00
  119                223.69    158.19     67.68      0.00
  120                  0.00    155.88     67.54      0.00
  121                 52.87    161.52     70.85      0.00
  123                  0.00    165.97     67.15      0.00
  125                 57.91    160.87     64.94      0.00
  127                 22.43    158.94     44.60      0.00
  129                  0.00    158.93     46.77      0.00
  131                 54.29    158.91     66.26      0.00
  139                  7.48    153.14     52.92      0.00
  141                 12.51    149.02     62.84      0.00
  143                  7.87    137.29     61.44      0.00
  145                 35.09    150.39     64.73      0.00
  147                 10.86    151.42     57.59      0.00
  149                 34.38    151.85     58.86      0.00
  151                183.49    156.01     53.08      0.00
  153                 56.10    156.11     38.96      0.00
  157                 65.77    155.84     61.85      0.00
  159                 52.48    152.61     63.52      0.00
  161                 20.07    150.41     63.44      0.00
  163                 11.96    149.97     62.81      0.00
  164                  0.00    149.97     62.81      0.00
  166                  3.30    149.97     65.85      0.00
  167                 18.49    148.16     66.37      0.00
  169                  0.00    148.16     66.37      0.00
  171                 49.96    147.12     65.48      0.00
  173                  0.00    147.10     65.47      0.00
  177                 73.88    146.72     60.11      0.00
  179                  0.00    146.69     60.10      0.00
  181                  0.00    146.76     60.12      0.00
  183                  0.00    146.71     58.80      0.00
  184                  0.00    145.66     56.18      0.00
  185                 32.58    146.19     56.41      0.00
  187                  0.00    146.87     58.22      0.00
  189                137.06    147.15     62.03      0.00
  191                104.01    147.16     52.93      0.00
  193                 90.56    147.25     56.00      0.00
  195                  0.00    147.32     57.12      0.00
  197                 21.64    147.18     53.81      0.00
  199                151.54    142.36     62.55      0.00
  201                 56.65    141.70     61.36      0.00
  203               4069.69    141.56     60.47      0.00
  204                  0.00    146.63     54.44      0.00
  205                 83.01    142.32     52.57      0.00
  206                  0.00    141.26     60.78      0.00
  207                 88.13    141.60     57.45      0.00
  208                  0.00    140.88     54.11      0.00
  209                  1.10    140.23     61.63      0.00
  211                 11.01    140.01     57.63      0.00
  213                 17.70    139.94     57.60      0.00
  215                117.08    139.76     57.53      0.00
  217                 30.76    139.74     57.95      0.00
  219                 52.48    139.73     58.81      0.00
  225                 28.96    139.74     57.08      0.00
  229                 81.51    139.71     55.99      0.00
  231                 20.93    139.71     58.37      0.00
  237                 19.82    139.75     54.49      0.00
  239                 56.65    139.72     54.91      0.00
  241                  0.00    139.72     54.91      0.00
  243                  5.51    139.72     54.47      0.00
  247                 89.38    139.72     52.74      0.00
  249                  0.00    139.72     52.74      0.00
  251                 30.68    139.72     47.54      0.00
  253                 69.24    139.68     44.92      0.00
  255                 51.30    139.73     48.85      0.00
  257                  0.00    152.91     58.89      0.00
  259                  0.00    152.49     55.24      0.00
  261                  0.00    150.99     65.42      0.00
  263                  0.00    150.83     65.36      0.00
  265                  0.00    148.74     64.45      0.00
  267                  0.00    147.26     54.71      0.00
  269                  0.00    147.53     63.92      0.00
  271                  0.00    146.86     61.03      0.00
  273                  0.00    142.32     58.20      0.00
  275                  0.00    141.70     57.07      0.00
  River           -13140.97    220.00      0.00      0.00  Reservoir
  Lake                 0.00    167.00      0.00      0.00  Reservoir
  1                  712.46    145.08      5.71      0.00  Tank
  2                 -168.74    139.94     10.16      0.00  Tank
  3                 2441.57    158.08     12.60      0.00  Tank
   
   
  Link Results at 0:05:00 hrs:
  ----------------------------------------------
                       Flow  Velocity  Headloss
  Link                  gpm       fps   /1000ft
  ----------------------------------------------
  20               -2441.57      0.10      0.00
  40                -712.46      0.03      0.00
  50                 168.74      0.01      0.00
  60               13140.97      9.32      8.91
  101                  0.00      0.00      0.00
  103                169.36      0.27      0.02
  105               -410.60      1.16      0.49
  107                 37.10      0.11      0.01
  109                  0.20      0.00      0.00
  111               -293.68      0.83      0.26
  112                494.83      1.40      0.69
  113                -57.90      0.16      0.01
  114                125.05      0.80      0.39
  115                -32.29      0.21      0.03
  116                 41.74      0.12      0.01
  117                619.62      1.76      1.04
  119               -718.34      2.04      1.37
  120               1127.53      3.20      3.17
  121               1012.06      2.87      2.59
  122                359.92      2.30      2.75
  123               9627.39      4.37      1.67
  125              13140.97      5.96      2.96
  129               3100.79      2.20      0.70
  131               2829.63      2.01      0.59
  133              -2441.57      2.49      1.10
  135                365.64      0.26      0.01
  137                 54.29      0.09      0.00
  145                311.34      1.99      2.10
  147                303.86      1.94      2.01
  149               -656.34      4.19      8.37
  151               -648.47      4.14      8.19
  153                364.99      1.04      0.39
  155                400.08      1.13      0.46
  159               -410.94      1.17      0.49
  161               -445.32      2.84      4.08
  163               -157.15      0.45      0.08
  169                213.25      1.36      1.04
  171                471.66      1.34      0.63
  173               7804.52      3.54      1.13
  175               7738.74      3.51      1.11
  177               7686.27      3.49      1.10
  179               7421.74      3.37      1.03
  180                  3.30      0.01      0.00
  181                  3.30      0.01      0.00
  183               7205.31      3.27      0.97
  185                -18.49      0.12      0.01
  186                335.92      2.14      2.42
  187               6586.57      2.99      0.82
  189               4450.95      2.02      0.40
  191              -2085.65      1.48      0.34
  193              -1566.43      1.11      0.20
  195                665.27      1.89      1.19
  197                591.39      1.68      0.96
  199               -121.06      0.34      0.05
  201               -712.46      2.02      1.35
  202                513.44      3.28      5.31
  203                210.10      1.34      1.02
  204                513.44      1.46      0.74
  205                335.92      0.95      0.34
  207                331.16      0.94      0.33
  209                150.15      0.96      0.55
  211                600.25      1.70      0.98
  213                185.77      0.53      0.11
  215                164.17      0.47      0.09
  217               -232.63      0.66      0.17
  219               -244.46      0.69      0.19
  221                244.46      1.56      1.34
  223                 57.15      0.16      0.01
  225                 78.79      0.22      0.02
  229               4450.95      3.16      1.18
  231               4167.06      2.96      1.05
  233               4069.69      2.89      1.17
  235                132.36      0.38      0.06
  237                458.55      1.30      0.60
  238                515.38      1.46      0.74
  239                144.96      0.41      0.07
  240                515.38      1.46      0.74
  241                515.38      1.46      0.74
  243                514.28      0.82      0.18
  245                307.96      0.49      0.07
  247                229.27      0.37      0.04
  249                112.19      0.18      0.01
  251                 52.48      0.11      0.01
  257                 28.96      0.08      0.00
  261                 60.98      0.39      0.10
  263                 20.93      0.06      0.00
  269                195.31      0.55      0.12
  271                 41.46      0.26      0.05
  273                134.03      0.38      0.06
  275                 32.39      0.09      0.00
  277                  5.51      0.02      0.00
  281                 26.88      0.11      0.01
  283                 44.98      0.13      0.01
  285                -33.39      0.09      0.00
  287                -29.11      0.12      0.01
  289                168.74      0.69      0.23
  291                 69.24      0.28      0.04
  293                 19.09      0.12      0.01
  295                 11.59      0.03      0.00
  297                475.40      3.03      4.61
  299                228.40      1.46      1.19
  301                228.40      1.46      1.19
  303                247.00      1.58      1.37
  305                144.22      0.41      0.07
  307                391.22      1.11      0.45
  309                201.17      1.28      0.94
  311                -37.00      0.10      0.01
  313                454.20      1.29      0.59
  315              -2231.70      1.58      0.38
  317                104.24      0.67      0.28
  319                 28.11      0.08      0.00
  321               7406.47      3.36      1.03
  323                 40.72      0.12      0.01
  325                146.05      0.93      0.52
  329              13140.97      5.96      3.00
  330                  0.00      0.00      0.00
  333                 -0.00      0.00      0.00
  10                   0.00      0.00      0.00  Pump
  335              13140.97      0.00    -93.59  Pump
   
   
  Node Results at 0:10:00 hrs:
  --------------------------------------------------------
                     Demand      Head  Pressure  Chemical
  Node                  gpm        ft       psi      mg/L
  --------------------------------------------------------
  10                   0.00    146.81     -0.08      0.00
  15                 648.47    123.85     39.80      0.00
  20                   0.00    158.15     12.63      0.00
  35                1566.43    146.81     58.20      0.00
  40                   0.00    145.17      5.75      0.00
  50                   0.00    139.88     10.13      0.00
  60                   0.00    209.04     90.58      0.00
  601                  0.00    302.65    131.14      0.00
  61                   0.00    302.65    131.14      0.00
  101                241.24    146.81     45.41      0.00
  103                169.16    146.78     44.97      0.00
  105                171.92    148.05     51.80      0.00
  107                 69.39    148.04     54.61      0.00
  109                293.88    146.78     54.80      0.00
  111                180.26    147.30     59.49      0.00
  113                 25.41    147.32     62.97      0.00
  115                 66.17    148.10     58.11      0.00
  117                149.49    151.10     59.58      0.00
  119                223.69    158.25     67.71      0.00
  120                  0.00    155.94     67.57      0.00
  121                 52.87    161.59     70.88      0.00
  123                  0.00    166.03     67.18      0.00
  125                 57.91    160.93     64.97      0.00
  127                 22.43    159.01     44.64      0.00
  129                  0.00    159.00     46.80      0.00
  131                 54.29    158.98     66.29      0.00
  139                  7.48    153.21     52.95      0.00
  141                 12.51    149.09     62.87      0.00
  143                  7.87    137.36     61.47      0.00
  145                 35.09    150.46     64.76      0.00
  147                 10.86    151.48     57.62      0.00
  149                 34.38    151.91     58.89      0.00
  151                183.49    156.08     53.11      0.00
  153                 56.10    156.17     38.98      0.00
  157                 65.77    155.90     61.88      0.00
  159                 52.48    152.67     63.55      0.00
  161                 20.07    150.47     63.47      0.00
  163                 11.96    150.03     62.84      0.00
  164                  0.00    150.03     62.84      0.00
  166                  3.30    150.03     65.87      0.00
  167                 18.49    148.22     66.39      0.00
  169                  0.00    148.22     66.39      0.00
  171                 49.96    147.17     65.50      0.00
  173                  0.00    147.15     65.49      0.00
  177                 73.88    146.78     60.13      0.00
  179                  0.00    146.75     60.12      0.00
  181                  0.00    146.82     60.15      0.00
  183                  0.00    146.77     58.83      0.00
  184                  0.00    145.71     56.20      0.00
  185                 32.58    146.24     56.43      0.00
  187                  0.00    146.93     58.25      0.00
  189                137.06    147.21     62.05      0.00
  191                104.01    147.22     52.96      0.00
  193                 90.56    147.31     56.03      0.00
  195                  0.00    147.38     57.14      0.00
  197                 21.64    147.24     53.83      0.00
  199                151.54    142.40     62.57      0.00
  201                 56.65    141.74     61.37      0.00
  203               4069.69    141.60     60.49      0.00
  204                  0.00    146.69     54.46      0.00
  205                 83.01    142.36     52.58      0.00
  206                  0.00    141.29     60.79      0.00
  207                 88.13    141.63     57.47      0.00
  208                  0.00    140.90     54.12      0.00
  209                  1.10    140.22     61.62      0.00
  211                 11.01    139.99     57.63      0.00
  213                 17.70    139.92     57.60      0.00
  215                117.08    139.75     57.52      0.00
  217                 30.76    139.73     57.95      0.00
  219                 52.48    139.72     58.81      0.00
  225                 28.96    139.72     57.08      0.00
  229                 81.51    139.68     55.98      0.00
  231                 20.93    139.68     58.36      0.00
  237                 19.82    139.72     54.47      0.00
  239                 56.65    139.69     54.89      0.00
  241                  0.00    139.69     54.89      0.00
  243                  5.51    139.69     54.46      0.00
  247                 89.38    139.68     52.72      0.00
  249                  0.00    139.68     52.72      0.00
  251                 30.68    139.68     47.52      0.00
  253                 69.24    139.64     44.91      0.00
  255                 51.30    139.69     48.83      0.00
  257                  0.00    152.97     58.92      0.00
  259                  0.00    152.55     55.27      0.00
  261                  0.00    151.05     65.45      0.00
  263                  0.00    150.89     65.38      0.00
  265                  0.00    148.80     64.47      0.00
  267                  0.00    147.32     54.73      0.00
  269                  0.00    147.59     63.95      0.00
  271                  0.00    146.92     61.06      0.00
  273                  0.00    142.36     58.22      0.00
  275                  0.00    141.74     57.08      0.00
  River           -13138.78    220.00      0.00      0.00  Reservoir
  Lake                 0.00    167.00      0.00      0.00  Reservoir
  1                  706.81    145.17      5.75      0.00  Tank
  2                 -160.39    139.88     10.13      0.00  Tank
  3                 2436.68    158.15     12.63      0.00  Tank
   
   
  Link Results at 0:10:00 hrs:
  ----------------------------------------------
                       Flow  Velocity  Headloss
  Link                  gpm       fps   /1000ft
  ----------------------------------------------
  20               -2436.68      0.10      0.00
  40                -706.81      0.03      0.00
  50                 160.39      0.01      0.00
  60               13138.78      9.32      8.90
  101                  0.00      0.00      0.00
  103                169.45      0.27      0.02
  105               -410.68      1.17      0.49
  107                 37.15      0.11      0.01
  109                  0.28      0.00      0.00
  111               -293.60      0.83      0.26
  112                495.01      1.40      0.69
  113                -57.77      0.16      0.01
  114                125.11      0.80      0.39
  115                -32.24      0.21      0.03
  116                 41.93      0.12      0.01
  117                619.75      1.76      1.04
  119               -718.53      2.04      1.37
  120               1127.77      3.20      3.17
  121               1012.27      2.87      2.59
  122                360.01      2.30      2.75
  123               9629.87      4.37      1.67
  125              13138.78      5.96      2.96
  129               3096.04      2.20      0.70
  131               2824.83      2.00      0.59
  133              -2436.68      2.49      1.10
  135                365.73      0.26      0.01
  137                 54.29      0.09      0.00
  145                311.43      1.99      2.11
  147                303.95      1.94      2.01
  149               -656.34      4.19      8.37
  151               -648.47      4.14      8.19
  153                364.90      1.04      0.39
  155                399.99      1.13      0.46
  159               -410.85      1.17      0.49
  161               -445.23      2.84      4.08
  163               -157.20      0.45      0.08
  169                213.30      1.36      1.04
  171                471.51      1.34      0.63
  173               7806.90      3.54      1.13
  175               7741.13      3.51      1.11
  177               7688.65      3.49      1.10
  179               7424.10      3.37      1.03
  180                  3.30      0.01      0.00
  181                  3.30      0.01      0.00
  183               7207.70      3.27      0.97
  185                -18.49      0.12      0.01
  186                336.34      2.15      2.43
  187               6589.15      2.99      0.83
  189               4458.23      2.02      0.40
  191              -2080.96      1.48      0.34
  193              -1566.43      1.11      0.20
  195                660.58      1.87      1.18
  197                586.70      1.66      0.94
  199               -120.11      0.34      0.05
  201               -706.81      2.01      1.33
  202                514.51      3.28      5.34
  203                210.75      1.35      1.02
  204                514.51      1.46      0.74
  205                336.34      0.95      0.34
  207                330.86      0.94      0.33
  209                150.33      0.96      0.55
  211                600.06      1.70      0.98
  213                186.00      0.53      0.11
  215                164.24      0.47      0.09
  217               -232.74      0.66      0.17
  219               -244.48      0.69      0.19
  221                244.48      1.56      1.34
  223                 57.28      0.16      0.01
  225                 78.92      0.22      0.02
  229               4458.23      3.16      1.19
  231               4172.53      2.96      1.05
  233               4069.69      2.89      1.17
  235                134.17      0.38      0.06
  237                461.33      1.31      0.60
  238                523.73      1.49      0.77
  239                150.52      0.43      0.08
  240                523.73      1.49      0.77
  241                523.73      1.49      0.77
  243                522.63      0.83      0.19
  245                309.73      0.49      0.07
  247                229.27      0.37      0.04
  249                112.19      0.18      0.01
  251                 52.48      0.11      0.01
  257                 28.96      0.08      0.00
  261                 62.75      0.40      0.11
  263                 20.93      0.06      0.00
  269                201.88      0.57      0.13
  271                 39.68      0.25      0.05
  273                142.38      0.40      0.07
  275                 35.52      0.10      0.01
  277                  5.51      0.02      0.00
  281                 30.00      0.12      0.01
  283                 50.20      0.14      0.01
  285                -35.73      0.10      0.01
  287                -23.64      0.10      0.01
  289                160.39      0.66      0.21
  291                 69.24      0.28      0.04
  293                 16.21      0.10      0.01
  295                 14.47      0.04      0.00
  297                475.50      3.04      4.61
  299                228.45      1.46      1.19
  301                228.45      1.46      1.19
  303                247.05      1.58      1.37
  305                144.25      0.41      0.07
  307                391.30      1.11      0.45
  309                201.14      1.28      0.94
  311                -36.89      0.10      0.01
  313                454.01      1.29      0.59
  315              -2227.01      1.58      0.38
  317                104.34      0.67      0.28
  319                 29.83      0.08      0.00
  321               7408.84      3.36      1.03
  323                 46.18      0.13      0.01
  325                146.05      0.93      0.52
  329              13138.78      5.96      3.00
  330                  0.00      0.00      0.00
  333                 -0.00      0.00      0.00
  10                   0.00      0.00      0.00  Pump
  335              13138.79      0.00    -93.61  Pump
   
   
  Node Results at 0:15:00 hrs:
  --------------------------------------------------------
                     Demand      Head  Pressure  Chemical
  Node                  gpm        ft       psi      mg/L
  --------------------------------------------------------
  10                   0.00    146.87     -0.06      0.00
  15                 648.47    123.92     39.83      0.00
  20                   0.00    158.23     12.67      0.00
  35                1566.43    146.87     58.22      0.00
  40                   0.00    145.25      5.79      0.00
  50                   0.00    139.83     10.11      0.00
  60                   0.00    209.04     90.58      0.00
  601                  0.00    302.67    131.15      0.00
  61                   0.00    302.67    131.15      0.00
  101                241.24    146.87     45.44      0.00
  103                169.16    146.84     44.99      0.00
  105                171.92    148.11     51.83      0.00
  107                 69.39    148.10     54.64      0.00
  109                293.88    146.84     54.83      0.00
  111                180.26    147.36     59.52      0.00
  113                 25.41    147.38     62.99      0.00
  115                 66.17    148.16     58.13      0.00
  117                149.49    151.16     59.60      0.00
  119                223.69    158.32     67.73      0.00
  120                  0.00    156.01     67.60      0.00
  121                 52.87    161.65     70.91      0.00
  123                  0.00    166.10     67.20      0.00
  125                 57.91    161.00     65.00      0.00
  127                 22.43    159.09     44.67      0.00
  129                  0.00    159.08     46.83      0.00
  131                 54.29    159.06     66.32      0.00
  139                  7.48    153.28     52.99      0.00
  141                 12.51    149.15     62.90      0.00
  143                  7.87    137.43     61.50      0.00
  145                 35.09    150.53     64.79      0.00
  147                 10.86    151.55     57.65      0.00
  149                 34.38    151.98     58.92      0.00
  151                183.49    156.14     53.14      0.00
  153                 56.10    156.24     39.01      0.00
  157                 65.77    155.97     61.90      0.00
  159                 52.48    152.73     63.58      0.00
  161                 20.07    150.53     63.49      0.00
  163                 11.96    150.09     62.87      0.00
  164                  0.00    150.09     62.87      0.00
  166                  3.30    150.09     65.90      0.00
  167                 18.49    148.28     66.42      0.00
  169                  0.00    148.28     66.42      0.00
  171                 49.96    147.23     65.53      0.00
  173                  0.00    147.21     65.52      0.00
  177                 73.88    146.84     60.16      0.00
  179                  0.00    146.82     60.15      0.00
  181                  0.00    146.88     60.18      0.00
  183                  0.00    146.83     58.85      0.00
  184                  0.00    145.77     56.23      0.00
  185                 32.58    146.30     56.46      0.00
  187                  0.00    146.99     58.28      0.00
  189                137.06    147.27     62.08      0.00
  191                104.01    147.28     52.98      0.00
  193                 90.56    147.37     56.06      0.00
  195                  0.00    147.44     57.17      0.00
  197                 21.64    147.30     53.86      0.00
  199                151.54    142.45     62.59      0.00
  201                 56.65    141.79     61.39      0.00
  203               4069.69    141.65     60.51      0.00
  204                  0.00    146.75     54.49      0.00
  205                 83.01    142.40     52.60      0.00
  206                  0.00    141.31     60.80      0.00
  207                 88.13    141.67     57.48      0.00
  208                  0.00    140.91     54.12      0.00
  209                  1.10    140.21     61.62      0.00
  211                 11.01    139.98     57.62      0.00
  213                 17.70    139.91     57.59      0.00
  215                117.08    139.73     57.51      0.00
  217                 30.76    139.72     57.94      0.00
  219                 52.48    139.71     58.80      0.00
  225                 28.96    139.71     57.07      0.00
  229                 81.51    139.66     55.96      0.00
  231                 20.93    139.65     58.35      0.00
  237                 19.82    139.69     54.46      0.00
  239                 56.65    139.65     54.88      0.00
  241                  0.00    139.65     54.88      0.00
  243                  5.51    139.65     54.45      0.00
  247                 89.38    139.65     52.71      0.00
  249                  0.00    139.65     52.71      0.00
  251                 30.68    139.65     47.51      0.00
  253                 69.24    139.60     44.89      0.00
  255                 51.30    139.65     48.81      0.00
  257                  0.00    153.03     58.94      0.00
  259                  0.00    152.62     55.30      0.00
  261                  0.00    151.11     65.48      0.00
  263                  0.00    150.96     65.41      0.00
  265                  0.00    148.86     64.50      0.00
  267                  0.00    147.38     54.76      0.00
  269                  0.00    147.65     63.97      0.00
  271                  0.00    146.98     61.09      0.00
  273                  0.00    142.40     58.24      0.00
  275                  0.00    141.78     57.10      0.00
  River           -13136.60    220.00      0.00      0.00  Reservoir
  Lake                 0.00    167.00      0.00      0.00  Reservoir
  1                  701.31    145.25      5.79      0.00  Tank
  2                 -152.25    139.83     10.11      0.00  Tank
  3                 2431.84    158.23     12.67      0.00  Tank
   
   
  Link Results at 0:15:00 hrs:
  ----------------------------------------------
                       Flow  Velocity  Headloss
  Link                  gpm       fps   /1000ft
  ----------------------------------------------
  20               -2431.84      0.10      0.00
  40                -701.31      0.03      0.00
  50                 152.25      0.01      0.00
  60               13136.60      9.32      8.90
  101                  0.00      0.00      0.00
  103                169.53      0.27      0.02
  105               -410.76      1.17      0.49
  107                 37.20      0.11      0.01
  109                  0.36      0.00      0.00
  111               -293.52      0.83      0.26
  112                495.19      1.40      0.69
  113                -57.64      0.16      0.01
  114                125.16      0.80      0.39
  115                -32.19      0.21      0.03
  116                 42.11      0.12      0.01
  117                619.88      1.76      1.05
  119               -718.71      2.04      1.37
  120               1128.00      3.20      3.17
  121               1012.49      2.87      2.59
  122                360.09      2.30      2.75
  123               9632.29      4.37      1.67
  125              13136.60      5.96      2.96
  129               3091.35      2.19      0.70
  131               2820.09      2.00      0.59
  133              -2431.84      2.48      1.09
  135                365.82      0.26      0.01
  137                 54.29      0.09      0.00
  145                311.52      1.99      2.11
  147                304.04      1.94      2.01
  149               -656.34      4.19      8.37
  151               -648.47      4.14      8.19
  153                364.81      1.03      0.39
  155                399.90      1.13      0.46
  159               -410.76      1.17      0.49
  161               -445.14      2.84      4.08
  163               -157.25      0.45      0.08
  169                213.35      1.36      1.05
  171                471.37      1.34      0.63
  173               7809.23      3.54      1.13
  175               7743.46      3.51      1.11
  177               7690.98      3.49      1.10
  179               7426.41      3.37      1.03
  180                  3.30      0.01      0.00
  181                  3.30      0.01      0.00
  183               7210.04      3.27      0.98
  185                -18.49      0.12      0.01
  186                336.75      2.15      2.43
  187               6591.67      2.99      0.83
  189               4465.33      2.03      0.40
  191              -2076.38      1.47      0.34
  193              -1566.43      1.11      0.20
  195                656.01      1.86      1.16
  197                582.13      1.65      0.93
  199               -119.18      0.34      0.05
  201               -701.31      1.99      1.31
  202                515.56      3.29      5.36
  203                211.38      1.35      1.03
  204                515.56      1.46      0.74
  205                336.75      0.96      0.34
  207                330.56      0.94      0.33
  209                150.52      0.96      0.55
  211                599.88      1.70      0.98
  213                186.24      0.53      0.11
  215                164.32      0.47      0.09
  217               -232.84      0.66      0.17
  219               -244.50      0.69      0.19
  221                244.50      1.56      1.35
  223                 57.41      0.16      0.01
  225                 79.05      0.22      0.02
  229               4465.33      3.17      1.19
  231               4177.83      2.96      1.05
  233               4069.69      2.89      1.17
  235                135.97      0.39      0.06
  237                464.09      1.32      0.61
  238                531.88      1.51      0.79
  239                155.91      0.44      0.08
  240                531.88      1.51      0.79
  241                531.88      1.51      0.79
  243                530.77      0.85      0.19
  245                311.49      0.50      0.07
  247                229.27      0.37      0.04
  249                112.19      0.18      0.01
  251                 52.48      0.11      0.01
  257                 28.96      0.08      0.00
  261                 64.51      0.41      0.11
  263                 20.93      0.06      0.00
  269                208.28      0.59      0.14
  271                 37.93      0.24      0.04
  273                150.52      0.43      0.08
  275                 38.57      0.11      0.01
  277                  5.51      0.02      0.00
  281                 33.06      0.14      0.01
  283                 55.30      0.16      0.01
  285                -38.19      0.11      0.01
  287                -18.13      0.07      0.00
  289                152.25      0.62      0.19
  291                 69.24      0.28      0.04
  293                 13.58      0.09      0.01
  295                 17.10      0.05      0.00
  297                475.60      3.04      4.61
  299                228.50      1.46      1.19
  301                228.50      1.46      1.19
  303                247.10      1.58      1.37
  305                144.28      0.41      0.07
  307                391.39      1.11      0.45
  309                201.11      1.28      0.94
  311                -36.79      0.10      0.01
  313                453.82      1.29      0.59
  315              -2222.44      1.58      0.38
  317                104.43      0.67      0.28
  319                 31.54      0.09      0.00
  321               7411.15      3.36      1.03
  323                 51.48      0.15      0.01
  325                146.06      0.93      0.52
  329              13136.60      5.96      3.00
  330                  0.00      0.00      0.00
  333                 -0.00      0.00      0.00
  10                   0.00      0.00      0.00  Pump
  335              13136.60      0.00    -93.63  Pump
   
   
  Node Results at 0:20:00 hrs:
  --------------------------------------------------------
                     Demand      Head  Pressure  Chemical
  Node                  gpm        ft       psi      mg/L
  --------------------------------------------------------
  10                   0.00    146.93     -0.03      0.00
  15                 648.47    123.99     39.86      0.00
  20                   0.00    158.31     12.70      0.00
  35                1566.43    146.93     58.25      0.00
  40                   0.00    145.33      5.82      0.00
  50                   0.00    139.78     10.09      0.00
  60                   0.00    209.05     90.58      0.00
  601                  0.00    302.70    131.16      0.00
  61                   0.00    302.70    131.16      0.00
  101                241.24    146.93     45.47      0.00
  103                169.16    146.90     45.02      0.00
  105                171.92    148.17     51.85      0.00
  107                 69.39    148.16     54.66      0.00
  109                293.88    146.90     54.85      0.00
  111                180.26    147.42     59.54      0.00
  113                 25.41    147.44     63.02      0.00
  115                 66.17    148.22     58.16      0.00
  117                149.49    151.22     59.63      0.00
  119                223.69    158.38     67.76      0.00
  120                  0.00    156.07     67.63      0.00
  121                 52.87    161.72     70.94      0.00
  123                  0.00    166.16     67.23      0.00
  125                 57.91    161.07     65.03      0.00
  127                 22.43    159.16     44.70      0.00
  129                  0.00    159.15     46.86      0.00
  131                 54.29    159.13     66.35      0.00
  139                  7.48    153.35     53.02      0.00
  141                 12.51    149.22     62.93      0.00
  143                  7.87    137.50     61.53      0.00
  145                 35.09    150.60     64.82      0.00
  147                 10.86    151.62     57.68      0.00
  149                 34.38    152.05     58.95      0.00
  151                183.49    156.21     53.17      0.00
  153                 56.10    156.30     39.04      0.00
  157                 65.77    156.03     61.93      0.00
  159                 52.48    152.79     63.60      0.00
  161                 20.07    150.59     63.52      0.00
  163                 11.96    150.15     62.89      0.00
  164                  0.00    150.15     62.89      0.00
  166                  3.30    150.15     65.93      0.00
  167                 18.49    148.34     66.44      0.00
  169                  0.00    148.34     66.44      0.00
  171                 49.96    147.29     65.55      0.00
  173                  0.00    147.27     65.55      0.00
  177                 73.88    146.90     60.19      0.00
  179                  0.00    146.88     60.17      0.00
  181                  0.00    146.94     60.20      0.00
  183                  0.00    146.89     58.88      0.00
  184                  0.00    145.82     56.25      0.00
  185                 32.58    146.36     56.48      0.00
  187                  0.00    147.05     58.30      0.00
  189                137.06    147.33     62.10      0.00
  191                104.01    147.34     53.01      0.00
  193                 90.56    147.43     56.08      0.00
  195                  0.00    147.50     57.19      0.00
  197                 21.64    147.36     53.88      0.00
  199                151.54    142.49     62.61      0.00
  201                 56.65    141.83     61.41      0.00
  203               4069.69    141.69     60.53      0.00
  204                  0.00    146.81     54.51      0.00
  205                 83.01    142.44     52.62      0.00
  206                  0.00    141.34     60.81      0.00
  207                 88.13    141.70     57.50      0.00
  208                  0.00    140.92     54.13      0.00
  209                  1.10    140.21     61.62      0.00
  211                 11.01    139.97     57.62      0.00
  213                 17.70    139.90     57.58      0.00
  215                117.08    139.72     57.51      0.00
  217                 30.76    139.70     57.93      0.00
  219                 52.48    139.69     58.80      0.00
  225                 28.96    139.70     57.06      0.00
  229                 81.51    139.63     55.95      0.00
  231                 20.93    139.63     58.33      0.00
  237                 19.82    139.66     54.45      0.00
  239                 56.65    139.62     54.86      0.00
  241                  0.00    139.62     54.86      0.00
  243                  5.51    139.62     54.43      0.00
  247                 89.38    139.62     52.70      0.00
  249                  0.00    139.62     52.70      0.00
  251                 30.68    139.61     47.50      0.00
  253                 69.24    139.57     44.88      0.00
  255                 51.30    139.62     48.80      0.00
  257                  0.00    153.09     58.97      0.00
  259                  0.00    152.68     55.32      0.00
  261                  0.00    151.17     65.50      0.00
  263                  0.00    151.02     65.44      0.00
  265                  0.00    148.92     64.53      0.00
  267                  0.00    147.44     54.78      0.00
  269                  0.00    147.70     64.00      0.00
  271                  0.00    147.04     61.11      0.00
  273                  0.00    142.45     58.26      0.00
  275                  0.00    141.83     57.12      0.00
  River           -13134.41    220.00      0.00      0.00  Reservoir
  Lake                 0.00    167.00      0.00      0.00  Reservoir
  1                  695.95    145.33      5.82      0.00  Tank
  2                 -144.29    139.78     10.09      0.00  Tank
  3                 2427.06    158.31     12.70      0.00  Tank
   
   
  Link Results at 0:20:00 hrs:
  ----------------------------------------------
                       Flow  Velocity  Headloss
  Link                  gpm       fps   /1000ft
  ----------------------------------------------
  20               -2427.06      0.10      0.00
  40                -695.95      0.03      0.00
  50                 144.29      0.01      0.00
  60               13134.41      9.31      8.90
  101                  0.00      0.00      0.00
  103                169.60      0.27      0.02
  105               -410.84      1.17      0.49
  107                 37.25      0.11      0.01
  109                  0.44      0.00      0.00
  111               -293.44      0.83      0.26
  112                495.37      1.41      0.69
  113                -57.51      0.16      0.01
  114                125.22      0.80      0.39
  115                -32.14      0.21      0.03
  116                 42.29      0.12      0.01
  117                620.01      1.76      1.05
  119               -718.89      2.04      1.38
  120               1128.22      3.20      3.17
  121               1012.69      2.87      2.59
  122                360.17      2.30      2.76
  123               9634.66      4.37      1.67
  125              13134.41      5.96      2.96
  129               3086.71      2.19      0.70
  131               2815.40      2.00      0.59
  133              -2427.06      2.48      1.09
  135                365.91      0.26      0.01
  137                 54.29      0.09      0.00
  145                311.61      1.99      2.11
  147                304.13      1.94      2.02
  149               -656.34      4.19      8.37
  151               -648.47      4.14      8.19
  153                364.72      1.03      0.39
  155                399.81      1.13      0.46
  159               -410.67      1.16      0.49
  161               -445.05      2.84      4.08
  163               -157.30      0.45      0.08
  169                213.40      1.36      1.05
  171                471.23      1.34      0.63
  173               7811.52      3.55      1.13
  175               7745.75      3.52      1.11
  177               7693.27      3.49      1.10
  179               7428.68      3.37      1.03
  180                  3.30      0.01      0.00
  181                  3.30      0.01      0.00
  183               7212.33      3.27      0.98
  185                -18.49      0.12      0.01
  186                337.16      2.15      2.44
  187               6594.14      2.99      0.83
  189               4472.26      2.03      0.40
  191              -2071.92      1.47      0.33
  193              -1566.43      1.11      0.20
  195                651.55      1.85      1.15
  197                577.68      1.64      0.92
  199               -118.27      0.34      0.05
  201               -695.95      1.97      1.30
  202                516.58      3.30      5.38
  203                212.00      1.35      1.03
  204                516.58      1.47      0.75
  205                337.16      0.96      0.34
  207                330.27      0.94      0.33
  209                150.69      0.96      0.55
  211                599.70      1.70      0.98
  213                186.46      0.53      0.11
  215                164.39      0.47      0.09
  217               -232.94      0.66      0.17
  219               -244.53      0.69      0.19
  221                244.53      1.56      1.35
  223                 57.54      0.16      0.01
  225                 79.18      0.22      0.02
  229               4472.26      3.17      1.19
  231               4182.96      2.97      1.05
  233               4069.69      2.89      1.17
  235                137.76      0.39      0.06
  237                466.82      1.32      0.62
  238                539.83      1.53      0.81
  239                161.14      0.46      0.09
  240                539.83      1.53      0.81
  241                539.83      1.53      0.81
  243                538.73      0.86      0.20
  245                313.22      0.50      0.07
  247                229.27      0.37      0.04
  249                112.19      0.18      0.01
  251                 52.48      0.11      0.01
  257                 28.96      0.08      0.00
  261                 66.24      0.42      0.12
  263                 20.93      0.06      0.00
  269                214.50      0.61      0.15
  271                 36.20      0.23      0.04
  273                158.48      0.45      0.08
  275                 41.55      0.12      0.01
  277                  5.51      0.02      0.00
  281                 36.04      0.15      0.01
  283                 60.27      0.17      0.01
  285                -40.87      0.12      0.01
  287                -12.48      0.05      0.00
  289                144.29      0.59      0.17
  291                 69.24      0.28      0.04
  293                 11.28      0.07      0.00
  295                 19.41      0.06      0.00
  297                475.70      3.04      4.61
  299                228.54      1.46      1.19
  301                228.54      1.46      1.19
  303                247.15      1.58      1.37
  305                144.32      0.41      0.07
  307                391.47      1.11      0.45
  309                201.08      1.28      0.94
  311                -36.69      0.10      0.01
  313                453.63      1.29      0.59
  315              -2217.98      1.57      0.38
  317                104.52      0.67      0.28
  319                 33.24      0.09      0.00
  321               7413.41      3.36      1.03
  323                 56.62      0.16      0.01
  325                146.07      0.93      0.52
  329              13134.41      5.96      3.00
  330                  0.00      0.00      0.00
  333                 -0.00      0.00      0.00
  10                   0.00      0.00      0.00  Pump
  335              13134.41      0.00    -93.65  Pump
   
   
  Node Results at 0:25:00 hrs:
  --------------------------------------------------------
                     Demand      Head  Pressure  Chemical
  Node                  gpm        ft       psi      mg/L
  --------------------------------------------------------
  10                   0.00    146.99     -0.01      0.00
  15                 648.47    124.05     39.89      0.00
  20                   0.00    158.39     12.73      0.00
  35                1566.43    146.99     58.28      0.00
  40                   0.00    145.42      5.86      0.00
  50                   0.00    139.73     10.06      0.00
  60                   0.00    209.05     90.58      0.00
  601                  0.00    302.72    131.17      0.00
  61                   0.00    302.72    131.17      0.00
  101                241.24    146.99     45.49      0.00
  103                169.16    146.96     45.04      0.00
  105                171.92    148.23     51.88      0.00
  107                 69.39    148.22     54.69      0.00
  109                293.88    146.96     54.88      0.00
  111                180.26    147.48     59.57      0.00
  113                 25.41    147.50     63.05      0.00
  115                 66.17    148.28     58.18      0.00
  117                149.49    151.28     59.66      0.00
  119                223.69    158.45     67.79      0.00
  120                  0.00    156.13     67.65      0.00
  121                 52.87    161.79     70.97      0.00
  123                  0.00    166.23     67.26      0.00
  125                 57.91    161.14     65.06      0.00
  127                 22.43    159.24     44.73      0.00
  129                  0.00    159.22     46.89      0.00
  131                 54.29    159.21     66.38      0.00
  139                  7.48    153.42     53.05      0.00
  141                 12.51    149.29     62.95      0.00
  143                  7.87    137.57     61.56      0.00
  145                 35.09    150.66     64.85      0.00
  147                 10.86    151.69     57.71      0.00
  149                 34.38    152.11     58.98      0.00
  151                183.49    156.27     53.20      0.00
  153                 56.10    156.37     39.07      0.00
  157                 65.77    156.09     61.96      0.00
  159                 52.48    152.85     63.63      0.00
  161                 20.07    150.65     63.54      0.00
  163                 11.96    150.21     62.92      0.00
  164                  0.00    150.21     62.92      0.00
  166                  3.30    150.21     65.95      0.00
  167                 18.49    148.40     66.47      0.00
  169                  0.00    148.40     66.47      0.00
  171                 49.96    147.35     65.58      0.00
  173                  0.00    147.33     65.57      0.00
  177                 73.88    146.96     60.21      0.00
  179                  0.00    146.94     60.20      0.00
  181                  0.00    147.00     60.23      0.00
  183                  0.00    146.95     58.91      0.00
  184                  0.00    145.88     56.28      0.00
  185                 32.58    146.42     56.51      0.00
  187                  0.00    147.11     58.33      0.00
  189                137.06    147.39     62.13      0.00
  191                104.01    147.40     53.04      0.00
  193                 90.56    147.49     56.11      0.00
  195                  0.00    147.56     57.22      0.00
  197                 21.64    147.42     53.91      0.00
  199                151.54    142.54     62.63      0.00
  201                 56.65    141.87     61.43      0.00
  203               4069.69    141.73     60.55      0.00
  204                  0.00    146.87     54.54      0.00
  205                 83.01    142.49     52.64      0.00
  206                  0.00    141.36     60.82      0.00
  207                 88.13    141.74     57.52      0.00
  208                  0.00    140.94     54.14      0.00
[...]
  219                 69.83    138.97     58.48      0.00
  225                 38.53    138.98     56.75      0.00
  229                108.46    138.98     55.67    102.36
  231                 27.85    138.98     58.05     85.16
  237                 26.38    139.06     54.19     93.42
  239                 75.39    139.03     54.61     98.00
  241                  0.00    139.03     54.61    100.85
  243                  7.33    139.03     54.17      0.00
  247                118.94    139.02     52.44     41.88
  249                  0.00    139.02     52.44     99.11
  251                 40.83    139.02     47.24      0.00
  253                 92.14    138.99     44.62      0.00
  255                 68.26    139.07     48.56      0.00
  257                  0.00    152.46     58.69      0.00
  259                  0.00    152.01     55.03      0.00
  261                  0.00    150.39     65.16      0.00
  263                  0.00    150.21     65.09      0.00
  265                  0.00    149.52     64.79      0.00
  267                  0.00    147.78     54.93      0.00
  269                  0.00    148.32     64.27      0.00
  271                  0.00    147.94     61.50      0.00
  273                  0.00    142.82     58.42      0.00
  275                  0.00    142.21     57.29      0.00
  River           -13180.31    220.00      0.00      0.00  Reservoir
  Lake                 0.00    167.00      0.00      0.00  Reservoir
  1                 -288.48    148.19      7.06      0.00  Tank
  2                 -254.72    139.52      9.97      0.00  Tank
  3                 1049.00    160.46     13.63      0.00  Tank
   
   
  Link Results at 23:55:00 hrs:
  ----------------------------------------------
                       Flow  Velocity  Headloss
  Link                  gpm       fps   /1000ft
  ----------------------------------------------
  20               -1049.00      0.04      0.00
  40                 288.48      0.01      0.00
  50                 254.72      0.01      0.00
  60               13180.31      9.35      8.96
  101                  0.00      0.00      0.00
  103                120.32      0.19      0.01
  105               -441.34      1.25      0.56
  107                -14.87      0.04      0.00
  109               -104.79      0.17      0.01
  111               -495.85      1.41      0.69
  112                417.39      1.18      0.50
  113               -204.52      0.58      0.13
  114                 82.24      0.52      0.18
  115               -107.21      0.68      0.29
  116               -156.10      0.44      0.08
  117                655.24      1.86      1.16
  119               -694.90      1.97      1.29
  120               1187.32      3.37      3.48
  121               1053.66      2.99      2.79
  122                361.75      2.31      2.78
  123               9344.93      4.24      1.58
  125              11440.83      5.19      2.29
  129               1663.79      1.18      0.22
  131               1386.19      0.98      0.16
  133              -1049.00      1.07      0.23
  135                307.34      0.22      0.01
  137                 72.25      0.12      0.00
  145                235.10      1.50      1.25
  147                225.14      1.44      1.15
  149               -349.81      2.23      2.61
  151               -339.33      2.17      2.47
  153                141.31      0.40      0.07
  155                188.01      0.53      0.11
  159               -202.46      0.57      0.13
  161               -248.20      1.58      1.38
  163               -125.89      0.36      0.05
  169                200.54      1.28      0.93
  171                366.48      1.04      0.39
  173               7493.47      3.40      1.05
  175               7405.94      3.36      1.02
  177               7336.11      3.33      1.01
  179               7046.03      3.20      0.93
  180                  4.39      0.01      0.00
  181                  4.39      0.01      0.00
  183               6806.61      3.09      0.88
  185                -24.61      0.16      0.02
  186                262.21      1.67      1.53
  187               6158.32      2.80      0.73
  189               4650.75      2.11      0.43
  191              -1441.08      1.02      0.17
  193              -1430.94      1.01      0.17
  195                116.50      0.33      0.05
  197                 18.19      0.05      0.00
  199                306.67      0.87      0.28
  201                288.48      0.82      0.25
  202                523.11      3.34      5.50
  203                304.25      1.94      2.02
  204                523.11      1.48      0.76
  205                262.21      0.74      0.21
  207                 -2.42      0.01      0.00
  209                228.63      1.46      1.19
  211                623.69      1.77      1.06
  213                 33.57      0.10      0.00
  215               -108.73      0.31      0.04
  217               -314.60      0.89      0.30
  219               -263.38      0.75      0.21
  221                263.38      1.68      1.54
  223               -142.61      0.40      0.07
  225               -113.81      0.32      0.05
  229               4650.75      3.30      1.28
  231               4244.83      3.01      1.08
  233               4013.45      2.85      1.14
  235                204.28      0.58      0.13
  237                513.44      1.46      0.74
  238                655.65      1.86      1.16
  239                259.48      0.74      0.21
  240                655.65      1.86      1.16
  241                655.65      1.86      1.16
  243                654.18      1.04      0.28
  245                403.54      0.64      0.12
  247                305.10      0.49      0.07
  249                149.29      0.24      0.02
  251                 69.83      0.15      0.01
  257                 38.53      0.11      0.01
  261                 74.89      0.48      0.15
  263                 27.85      0.08      0.00
  269                235.98      0.67      0.17
  271                 61.43      0.39      0.10
  273                148.18      0.42      0.07
  275                 31.81      0.09      0.00
  277                  7.33      0.02      0.00
  281                 24.47      0.10      0.01
  283                 40.98      0.12      0.01
  285                -36.67      0.10      0.01
  287                -57.81      0.24      0.03
  289                254.72      1.04      0.49
  291                 92.14      0.38      0.07
  293                 36.52      0.23      0.04
  295                  4.31      0.01      0.00
  297                495.41      3.16      4.97
  299                238.24      1.52      1.28
  301                238.24      1.52      1.28
  303                257.17      1.64      1.48
  305                159.83      0.45      0.08
  307                417.00      1.18      0.50
  309                219.10      1.40      1.10
  311               -327.82      0.93      0.32
  313                517.33      1.47      0.75
  315              -1547.44      1.10      0.19
  317                103.49      0.66      0.27
  319                100.79      0.29      0.04
  321               7025.71      3.19      0.93
  323                155.98      0.44      0.08
  325                106.36      0.68      0.29
  329              13180.31      5.98      3.02
  330                  0.00      0.00      0.00
  333                 -0.00      0.00      0.00
  10                   0.00      0.00      0.00  Pump
  335              13180.31      0.00    -93.25  Pump
   
   
  Node Results at 24:00:00 hrs:
  --------------------------------------------------------
                     Demand      Head  Pressure  Chemical
  Node                  gpm        ft       psi      mg/L
  --------------------------------------------------------
  10                   0.00    149.04      0.88      0.00
  15                 648.47    126.09     40.77      0.00
  20                   0.00    160.49     13.65      0.00
  35                1566.43    149.08     59.18      0.00
  40                   0.00    148.16      7.05      0.00
  50                   0.00    139.43      9.94      0.00
  60                   0.00    209.15     90.63      0.00
  601                  0.00    303.40    131.47      0.00
  61                   0.00    303.40    131.47      0.00
  101                241.24    149.04     46.38      0.00
  103                169.16    149.01     45.93      0.00
  105                171.92    150.28     52.77      0.00
  107                 69.39    150.27     55.58      0.00
  109                293.88    149.01     55.77      0.00
  111                180.26    149.54     60.46      0.00
  113                 25.41    149.56     63.94      0.00
  115                 66.17    150.33     59.07      0.00
  117                149.49    153.32     60.54      0.00
  119                223.69    160.46     68.66      0.00
  120                  0.00    158.15     68.53      0.00
  121                 52.87    163.79     71.83      0.00
  123                  0.00    168.19     68.11      0.00
  125                 57.91    163.16     65.93      0.00
  127                 22.43    161.31     45.63      0.00
  129                  0.00    161.30     47.79      0.00
  131                 54.29    161.28     67.28      0.00
  139                  7.48    155.48     53.94      0.00
  141                 12.51    151.33     63.84      0.00
  143                  7.87    139.60     62.44      0.00
  145                 35.09    152.70     65.73      0.00
  147                 10.86    153.71     58.59      0.00
  149                 34.38    154.14     59.86      0.00
  151                183.49    158.29     54.07      0.00
  153                 56.10    158.39     39.94      0.00
  157                 65.77    158.11     62.83      0.00
  159                 52.48    154.88     64.51      0.00
  161                 20.07    152.69     64.43      0.00
  163                 11.96    152.25     63.80      0.00
  164                  0.00    152.25     63.80      0.00
  166                  3.30    152.25     66.84      0.00
  167                 18.49    150.44     67.35      0.00
  169                  0.00    150.44     67.35      0.00
  171                 49.96    149.39     66.47      0.00
  173                  0.00    149.37     66.46      0.00
  177                 73.88    149.06     61.12      0.00
  179                  0.00    149.05     61.12      0.00
  181                  0.00    149.09     61.13      0.00
  183                  0.00    149.05     59.82      0.00
  184                  0.00    147.87     57.14      0.00
  185                 32.58    148.45     57.39      0.00
  187                  0.00    149.16     59.22      0.00
  189                137.06    149.45     63.03      0.00
  191                104.01    149.46     53.93      0.00
  193                 90.56    149.55     57.00      0.00
  195                  0.00    149.61     58.11      0.00
  197                 21.64    149.47     54.80      0.00
  199                151.54    144.31     63.40      0.00
  201                 56.65    143.62     62.19      0.00
  203               4069.69    143.48     61.30      0.00
  204                  0.00    148.91     55.42      0.00
  205                 83.01    144.22     53.39     62.46
  206                  0.00    142.69     61.39     44.54
  207                 88.13    143.29     58.19     44.43
  208                  0.00    142.02     54.60     44.65
  209                  1.10    140.85     61.89     44.84
  211                 11.01    140.45     57.82     70.37
  213                 17.70    140.36     57.79     99.61
  215                117.08    140.19     57.71     96.26
  217                 30.76    140.17     58.14    104.87
  219                 52.48    140.16     59.00      0.00
  225                 28.96    140.16     57.27      0.00
  229                 81.51    139.74     56.00    101.38
  231                 20.93    139.74     58.38     85.30
  237                 19.82    139.74     54.48     94.14
  239                 56.65    139.58     54.85     97.90
  241                  0.00    139.58     54.85     98.58
  243                  5.51    139.58     54.41      0.00
  247                 89.38    139.54     52.66     49.39
  249                  0.00    139.54     52.66    100.32
  251                 30.68    139.51     47.45      0.00
  253                 69.24    139.39     44.80      0.00
  255                 51.30    139.44     48.72      0.00
  257                  0.00    155.19     59.88      0.00
  259                  0.00    154.77     56.23      0.00
  261                  0.00    153.27     66.41      0.00
  263                  0.00    153.12     66.35      0.00
  265                  0.00    151.02     65.44      0.00
  267                  0.00    149.56     55.70      0.00
  269                  0.00    149.82     64.92      0.00
  271                  0.00    149.17     62.04      0.00
  273                  0.00    144.24     59.03      0.00
  275                  0.00    143.59     57.89      0.00
  River           -13065.99    220.00      0.00      0.00  Reservoir
  Lake                 0.00    167.00      0.00      0.00  Reservoir
  1                  516.70    148.16      7.05      0.00  Tank
  2                   19.90    139.43      9.94      0.00  Tank
  3                 2373.70    160.49     13.65      0.00  Tank
   
   
  Link Results at 24:00:00 hrs:
  ----------------------------------------------
                       Flow  Velocity  Headloss
  Link                  gpm       fps   /1000ft
  ----------------------------------------------
  20               -2373.70      0.10      0.00
  40                -516.70      0.02      0.00
  50                 -19.90      0.00      0.00
  60               13065.99      9.27      8.81
  101                  0.00      0.00      0.00
  103                168.91      0.27      0.02
  105               -410.14      1.16      0.49
  107                 36.80      0.10      0.01
  109                 -0.26      0.00      0.00
  111               -294.13      0.83      0.26
  112                493.82      1.40      0.69
  113                -59.24      0.17      0.01
  114                124.71      0.80      0.39
  115                -32.59      0.21      0.03
  116                 40.05      0.11      0.01
  117                618.86      1.76      1.04
  119               -717.29      2.03      1.37
  120               1126.09      3.19      3.16
  121               1010.83      2.87      2.59
  122                359.56      2.29      2.75
  123               9619.38      4.37      1.66
  125              13065.99      5.93      2.93
  129               3034.19      2.15      0.68
  131               2762.80      1.96      0.57
  133              -2373.70      2.42      1.04
  135                366.67      0.26      0.01
  137                 54.29      0.09      0.00
  145                312.37      1.99      2.12
  147                304.89      1.95      2.02
  149               -656.34      4.19      8.37
  151               -648.47      4.14      8.19
  153                363.96      1.03      0.39
  155                399.05      1.13      0.46
  159               -409.91      1.16      0.49
  161               -444.29      2.84      4.07
  163               -157.38      0.45      0.08
  169                213.48      1.36      1.05
  171                470.40      1.33      0.63
  173               7799.21      3.54      1.13
  175               7733.44      3.51      1.11
  177               7680.96      3.49      1.10
  179               7417.24      3.37      1.03
  180                  3.30      0.01      0.00
  181                  3.30      0.01      0.00
  183               7202.22      3.27      0.97
  185                -18.49      0.12      0.01
  186                342.91      2.19      2.52
  187               6591.87      2.99      0.83
  189               4614.55      2.09      0.43
  191              -1927.36      1.37      0.29
  193              -1566.43      1.11      0.20
  195                504.96      1.43      0.71
  197                431.08      1.22      0.53
  199                -85.62      0.24      0.03
  201               -516.70      1.47      0.75
  202                538.49      3.44      5.80
  203                228.15      1.46      1.18
  204                538.49      1.53      0.81
  205                342.91      0.97      0.35
  207                313.77      0.89      0.30
  209                155.05      0.99      0.58
  211                591.86      1.68      0.96
  213                187.86      0.53      0.11
  215                158.04      0.45      0.08
  217               -234.85      0.67      0.17
  219               -243.65      0.69      0.19
  221                243.65      1.56      1.34
  223                 57.03      0.16      0.01
  225                 78.67      0.22      0.02
  229               4614.55      3.27      1.27
  231               4283.12      3.04      1.10
  233               4069.69      2.89      1.17
  235                179.89      0.51      0.11
  237                528.98      1.50      0.78
  238                704.02      2.00      1.32
  239                263.16      0.75      0.21
  240                704.02      2.00      1.32
  241                704.02      2.00      1.32
  243                702.92      1.12      0.32
  245                352.40      0.56      0.09
  247                229.27      0.37      0.04
  249                112.19      0.18      0.01
  251                 52.48      0.11      0.01
  257                 28.96      0.08      0.00
  261                105.43      0.67      0.28
  263                 20.93      0.06      0.00
  269                339.50      0.96      0.34
  271                 -2.99      0.02      0.00
  273                322.67      0.92      0.31
  275                103.05      0.29      0.04
  277                  5.51      0.02      0.00
  281                 97.53      0.40      0.08
  283                162.97      0.46      0.09
  285                -84.53      0.24      0.03
  287                 92.68      0.38      0.08
  289                -19.90      0.08      0.00
  291                 69.24      0.28      0.04
  293                -47.76      0.30      0.07
  295                 78.44      0.22      0.02
  297                474.82      3.03      4.60
  299                228.12      1.46      1.18
  301                228.12      1.46      1.18
  303                246.70      1.57      1.37
  305                144.04      0.41      0.07
  307                390.74      1.11      0.44
  309                199.76      1.27      0.93
  311                -41.71      0.12      0.01
  313                447.83      1.27      0.57
  315              -2071.39      1.47      0.33
  317                106.39      0.68      0.29
  319                 73.50      0.21      0.02
  321               7401.98      3.36      1.02
  323                156.77      0.44      0.08
  325                144.03      0.92      0.50
  329              13065.99      5.93      2.97
  330                  0.00      0.00      0.00
  333                 -0.00      0.00      0.00
  10                   0.00      0.00      0.00  Pump
  335              13065.99      0.00    -94.25  Pump
   
  Analysis ended Wed May 06 16:51:23 2020
