  Page 1                                    Wed May 06 16:52:27 2020

  ******************************************************************
  *                           E P A N E T                          *
  *                   Hydraulic and Water Quality                  *
  *                   Analysis for Pipe Networks                   *
  *                         Version 2.00.12                        *
  ******************************************************************
  
  Analysis begun Wed May 06 16:52:27 2020

   
  Hydraulic Status:
  -----------------------------------------------------------------------
     0:00:00: Balanced after 5 trials
     0:00:00: Reservoir River is emptying
     0:00:00: Reservoir Lake is closed
     0:00:00: Tank 1 is filling at 13.10 ft
     0:00:00: Tank 2 is emptying at 23.50 ft
     0:00:00: Tank 3 is filling at 29.00 ft
   
     0:05:00: Balanced after 2 trials
   
     0:10:00: Balanced after 2 trials
   
     0:15:00: Balanced after 2 trials
   
     0:20:00: Balanced after 2 trials
   
     0:25:00: Balanced after 2 trials
   
     0:30:00: Balanced after 2 trials
   
     0:35:00: Balanced after 2 trials
   
     0:40:00: Balanced after 2 trials
   
     0:45:00: Balanced after 2 trials
   
     0:50:00: Balanced after 2 trials
   
     0:55:00: Balanced after 2 trials
   
     1:00:00: Pump 10 changed by timer control
     1:00:00: Balanced after 7 trials
     1:00:00: Reservoir Lake is emptying
     1:00:00: Pump 10 changed from closed to open
   
     1:05:00: Balanced after 2 trials
   
     1:10:00: Balanced after 2 trials
   
     1:15:00: Balanced after 2 trials
   
     1:20:00: Balanced after 2 trials
   
     1:25:00: Balanced after 2 trials
   
     1:30:00: Balanced after 2 trials
   
     1:35:00: Balanced after 2 trials
   
     1:40:00: Balanced after 2 trials
   
     1:45:00: Balanced after 2 trials
   
     1:50:00: Balanced after 2 trials
   
     1:55:00: Balanced after 2 trials
   
     2:00:00: Balanced after 3 trials
     2:00:00: Tank 2 is filling at 21.81 ft
   
     2:05:00: Balanced after 1 trials
   
     2:10:00: Balanced after 1 trials
   
     2:15:00: Balanced after 1 trials
   
     2:20:00: Balanced after 1 trials
   
     2:25:00: Balanced after 1 trials
   
     2:30:00: Balanced after 1 trials
   
     2:35:00: Balanced after 1 trials
   
     2:40:00: Balanced after 1 trials
   
     2:45:00: Balanced after 1 trials
   
     2:50:00: Balanced after 1 trials
   
     2:55:00: Balanced after 1 trials
   
     3:00:00: Balanced after 2 trials
   
     3:05:00: Balanced after 1 trials
   
     3:10:00: Balanced after 1 trials
   
     3:15:00: Balanced after 1 trials
   
     3:20:00: Balanced after 1 trials
   
     3:25:00: Balanced after 1 trials
   
     3:30:00: Balanced after 1 trials
   
     3:35:00: Balanced after 1 trials
   
     3:40:00: Balanced after 1 trials
   
     3:45:00: Balanced after 1 trials
   
     3:50:00: Balanced after 1 trials
   
     3:55:00: Balanced after 1 trials
   
     3:57:40: Pump 335 changed by Tank 1 control
     3:57:40: Pipe 330 changed by Tank 1 control
     3:57:40: Balanced after 4 trials
     3:57:40: Tank 3 is emptying at 33.91 ft
     3:57:40: Pipe 330 changed from closed to open
     3:57:40: Pump 335 changed from open to closed
   
     4:00:00: Balanced after 3 trials
     4:00:00: Tank 3 is filling at 33.91 ft
   
     4:05:00: Balanced after 2 trials
   
     4:10:00: Balanced after 2 trials
   
     4:15:00: Balanced after 2 trials
   
     4:20:00: Balanced after 2 trials
   
     4:25:00: Balanced after 2 trials
   
     4:30:00: Balanced after 2 trials
   
     4:35:00: Balanced after 2 trials
   
     4:40:00: Balanced after 2 trials
   
     4:45:00: Balanced after 2 trials
   
     4:50:00: Balanced after 2 trials
   
     4:55:00: Balanced after 2 trials
   
     5:00:00: Balanced after 3 trials
   
     5:05:00: Balanced after 2 trials
   
     5:10:00: Balanced after 2 trials
   
     5:15:00: Balanced after 2 trials
   
     5:20:00: Balanced after 2 trials
   
     5:25:00: Balanced after 2 trials
   
     5:30:00: Balanced after 2 trials
   
     5:35:00: Balanced after 2 trials
   
     5:40:00: Balanced after 2 trials
   
     5:45:00: Balanced after 2 trials
   
     5:50:00: Balanced after 2 trials
   
     5:55:00: Balanced after 2 trials
   
     6:00:00: Balanced after 3 trials
   
     6:05:00: Balanced after 1 trials
   
     6:10:00: Balanced after 1 trials
   
     6:15:00: Balanced after 1 trials
   
     6:20:00: Balanced after 1 trials
   
     6:25:00: Balanced after 1 trials
   
     6:30:00: Balanced after 1 trials
   
     6:35:00: Balanced after 1 trials
   
     6:40:00: Balanced after 1 trials
   
     6:45:00: Balanced after 1 trials
   
     6:50:00: Balanced after 1 trials
   
     6:55:00: Balanced after 1 trials
   
     7:00:00: Balanced after 4 trials
     7:00:00: Tank 1 is emptying at 21.96 ft
     7:00:00: Tank 2 is emptying at 27.45 ft
   
     7:05:00: Balanced after 2 trials
   
     7:10:00: Balanced after 2 trials
   
     7:15:00: Balanced after 2 trials
   
     7:20:00: Balanced after 2 trials
   
     7:25:00: Balanced after 2 trials
   
     7:30:00: Balanced after 2 trials
   
     7:35:00: Balanced after 2 trials
   
     7:40:00: Balanced after 2 trials
   
     7:45:00: Balanced after 2 trials
   
     7:50:00: Balanced after 2 trials
   
     7:55:00: Balanced after 2 trials
   
     8:00:00: Balanced after 4 trials
     8:00:00: Tank 1 is filling at 21.39 ft
     8:00:00: Tank 2 is filling at 26.55 ft
   
     8:05:00: Balanced after 1 trials
   
     8:10:00: Balanced after 1 trials
   
     8:15:00: Balanced after 1 trials
   
     8:20:00: Balanced after 1 trials
   
     8:25:00: Balanced after 1 trials
   
     8:30:00: Balanced after 1 trials
   
     8:35:00: Balanced after 1 trials
   
     8:40:00: Balanced after 1 trials
   
     8:45:00: Balanced after 1 trials
   
     8:50:00: Balanced after 1 trials
   
     8:55:00: Balanced after 1 trials
   
     9:00:00: Balanced after 4 trials
     9:00:00: Tank 3 is emptying at 35.25 ft
   
     9:05:00: Balanced after 2 trials
   
     9:10:00: Balanced after 2 trials
   
     9:15:00: Balanced after 2 trials
   
     9:20:00: Balanced after 2 trials
   
     9:25:00: Balanced after 2 trials
   
     9:30:00: Balanced after 2 trials
   
     9:35:00: Balanced after 2 trials
   
     9:40:00: Balanced after 2 trials
   
     9:45:00: Balanced after 2 trials
     9:45:00: Tank 1 is closed at 22.02 ft
   
     9:50:00: Balanced after 2 trials
     9:50:00: Tank 1 is emptying at 22.02 ft
   
     9:55:00: Balanced after 2 trials
   
    10:00:00: Balanced after 3 trials
    10:00:00: Tank 1 is filling at 22.02 ft
   
    10:05:00: Balanced after 2 trials
   
    10:10:00: Balanced after 2 trials
   
    10:15:00: Balanced after 2 trials
   
    10:20:00: Balanced after 2 trials
   
    10:25:00: Balanced after 2 trials
   
    10:30:00: Balanced after 2 trials
   
    10:35:00: Balanced after 1 trials
   
    10:40:00: Balanced after 1 trials
   
    10:45:00: Balanced after 1 trials
   
    10:50:00: Balanced after 1 trials
   
    10:55:00: Balanced after 1 trials
   
    11:00:00: Balanced after 4 trials
    11:00:00: Tank 1 is emptying at 22.07 ft
    11:00:00: Tank 2 is emptying at 27.47 ft
   
    11:05:00: Balanced after 1 trials
   
    11:10:00: Balanced after 1 trials
   
    11:15:00: Balanced after 1 trials
   
    11:20:00: Balanced after 1 trials
   
    11:25:00: Balanced after 1 trials
   
    11:30:00: Balanced after 1 trials
   
    11:35:00: Balanced after 1 trials
   
    11:40:00: Balanced after 1 trials
   
    11:45:00: Balanced after 1 trials
   
    11:50:00: Balanced after 1 trials
   
    11:55:00: Balanced after 1 trials
   
    12:00:00: Balanced after 3 trials
    12:00:00: Tank 2 is filling at 26.84 ft
   
    12:05:00: Balanced after 1 trials
   
    12:10:00: Balanced after 1 trials
   
    12:15:00: Balanced after 1 trials
   
    12:20:00: Balanced after 1 trials
   
    12:25:00: Balanced after 1 trials
   
    12:30:00: Balanced after 1 trials
   
    12:35:00: Balanced after 1 trials
   
    12:40:00: Balanced after 1 trials
   
    12:45:00: Balanced after 1 trials
   
    12:50:00: Balanced after 1 trials
   
    12:55:00: Balanced after 1 trials
   
    13:00:00: Balanced after 3 trials
    13:00:00: Tank 2 is emptying at 26.91 ft
   
    13:05:00: Balanced after 1 trials
   
    13:10:00: Balanced after 1 trials
   
    13:15:00: Balanced after 1 trials
   
    13:20:00: Balanced after 1 trials
   
    13:25:00: Balanced after 1 trials
   
    13:30:00: Balanced after 1 trials
   
    13:35:00: Balanced after 1 trials
   
    13:40:00: Balanced after 1 trials
   
    13:45:00: Balanced after 1 trials
   
    13:50:00: Balanced after 1 trials
   
    13:55:00: Balanced after 1 trials
   
    14:00:00: Balanced after 3 trials
    14:00:00: Tank 1 is filling at 21.15 ft
    14:00:00: Tank 2 is filling at 26.74 ft
   
    14:05:00: Balanced after 2 trials
   
    14:10:00: Balanced after 2 trials
   
    14:15:00: Balanced after 2 trials
   
    14:20:00: Balanced after 2 trials
   
    14:25:00: Balanced after 2 trials
   
    14:30:00: Balanced after 2 trials
   
    14:35:00: Balanced after 2 trials
   
    14:40:00: Balanced after 2 trials
   
    14:45:00: Balanced after 2 trials
   
    14:50:00: Balanced after 2 trials
   
    14:55:00: Balanced after 2 trials
   
    15:00:00: Pump 10 changed by timer control
    15:00:00: Balanced after 4 trials
    15:00:00: Reservoir Lake is closed
    15:00:00: Tank 1 is emptying at 21.46 ft
    15:00:00: Pump 10 changed from open to closed
   
    15:05:00: Balanced after 2 trials
   
    15:10:00: Balanced after 2 trials
   
    15:15:00: Balanced after 2 trials
   
    15:20:00: Balanced after 2 trials
   
    15:25:00: Balanced after 2 trials
   
    15:30:00: Balanced after 2 trials
   
    15:35:00: Balanced after 2 trials
   
    15:40:00: Balanced after 2 trials
   
    15:45:00: Balanced after 2 trials
   
    15:50:00: Balanced after 2 trials
   
    15:55:00: Balanced after 2 trials
   
    16:00:00: Balanced after 4 trials
    16:00:00: Tank 2 is emptying at 27.55 ft
   
    16:05:00: Balanced after 1 trials
   
    16:10:00: Balanced after 1 trials
   
    16:15:00: Balanced after 1 trials
   
    16:20:00: Balanced after 1 trials
   
    16:25:00: Balanced after 1 trials
   
    16:30:00: Balanced after 1 trials
   
    16:35:00: Balanced after 1 trials
   
    16:40:00: Balanced after 1 trials
   
    16:45:00: Balanced after 1 trials
   
    16:50:00: Balanced after 1 trials
   
    16:55:00: Balanced after 1 trials
   
    17:00:00: Balanced after 4 trials
    17:00:00: Tank 2 is filling at 26.81 ft
   
    17:05:00: Balanced after 2 trials
   
    17:10:00: Balanced after 2 trials
   
    17:15:00: Balanced after 2 trials
   
    17:20:00: Balanced after 2 trials
   
    17:25:00: Balanced after 2 trials
   
    17:30:00: Balanced after 2 trials
   
    17:35:00: Balanced after 2 trials
   
    17:40:00: Balanced after 2 trials
   
    17:45:00: Balanced after 2 trials
   
    17:50:00: Balanced after 2 trials
   
    17:55:00: Balanced after 2 trials
   
    18:00:00: Balanced after 4 trials
    18:00:00: Tank 2 is emptying at 27.52 ft
   
    18:05:00: Balanced after 1 trials
   
    18:10:00: Balanced after 1 trials
   
    18:15:00: Balanced after 1 trials
   
    18:20:00: Balanced after 1 trials
   
    18:25:00: Balanced after 1 trials
   
    18:30:00: Balanced after 1 trials
   
    18:35:00: Balanced after 1 trials
   
    18:40:00: Balanced after 1 trials
   
    18:45:00: Balanced after 1 trials
   
    18:50:00: Balanced after 1 trials
   
    18:55:00: Balanced after 1 trials
   
    19:00:00: Balanced after 2 trials
   
    19:05:00: Balanced after 1 trials
   
    19:10:00: Balanced after 1 trials
   
    19:15:00: Balanced after 1 trials
   
    19:20:00: Balanced after 1 trials
   
    19:25:00: Balanced after 1 trials
   
    19:30:00: Balanced after 1 trials
   
    19:35:00: Balanced after 1 trials
   
    19:40:00: Balanced after 1 trials
   
    19:45:00: Balanced after 1 trials
   
    19:50:00: Balanced after 1 trials
   
    19:55:00: Balanced after 1 trials
   
    20:00:00: Balanced after 3 trials
    20:00:00: Tank 2 is filling at 26.31 ft
   
    20:05:00: Balanced after 1 trials
   
    20:10:00: Balanced after 1 trials
   
    20:15:00: Balanced after 1 trials
   
    20:20:00: Balanced after 1 trials
   
    20:25:00: Balanced after 1 trials
   
    20:30:00: Balanced after 1 trials
   
    20:35:00: Balanced after 1 trials
   
    20:40:00: Balanced after 1 trials
   
    20:45:00: Balanced after 1 trials
   
    20:50:00: Balanced after 1 trials
   
    20:55:00: Balanced after 1 trials
   
    21:00:00: Balanced after 3 trials
    21:00:00: Tank 2 is emptying at 26.39 ft
   
    21:05:00: Balanced after 2 trials
   
    21:10:00: Balanced after 2 trials
   
    21:14:25: Pump 335 changed by Tank 1 control
    21:14:25: Pipe 330 changed by Tank 1 control
    21:14:25: Balanced after 5 trials
    21:14:25: Tank 3 is filling at 29.58 ft
    21:14:25: Pipe 330 changed from open to closed
    21:14:25: Pump 335 changed from closed to open
   
    21:15:00: Balanced after 1 trials
   
    21:20:00: Balanced after 2 trials
   
    21:25:00: Balanced after 2 trials
   
    21:30:00: Balanced after 2 trials
   
    21:35:00: Balanced after 2 trials
   
    21:40:00: Balanced after 2 trials
   
    21:45:00: Balanced after 2 trials
   
    21:50:00: Balanced after 2 trials
   
    21:55:00: Balanced after 2 trials
   
    22:00:00: Balanced after 3 trials
   
    22:05:00: Balanced after 2 trials
   
    22:10:00: Balanced after 2 trials
   
    22:15:00: Balanced after 2 trials
   
    22:20:00: Balanced after 2 trials
   
    22:25:00: Balanced after 2 trials
   
    22:30:00: Balanced after 2 trials
   
    22:35:00: Balanced after 2 trials
   
    22:40:00: Balanced after 2 trials
   
    22:45:00: Balanced after 2 trials
   
    22:50:00: Balanced after 2 trials
    22:50:00: Tank 1 is filling at 16.86 ft
   
    22:55:00: Balanced after 2 trials
   
    23:00:00: Balanced after 4 trials
    23:00:00: Tank 1 is emptying at 16.86 ft
   
    23:05:00: Balanced after 2 trials
   
    23:10:00: Balanced after 2 trials
   
    23:15:00: Balanced after 2 trials
   
    23:20:00: Balanced after 2 trials
   
    23:25:00: Balanced after 2 trials
   
    23:30:00: Balanced after 2 trials
   
    23:35:00: Balanced after 2 trials
   
    23:40:00: Balanced after 2 trials
   
    23:45:00: Balanced after 2 trials
    23:45:00: Tank 3 is emptying at 30.79 ft
   
    23:50:00: Balanced after 2 trials
   
    23:55:00: Balanced after 2 trials
   
    24:00:00: Balanced after 4 trials
    24:00:00: Tank 1 is filling at 15.39 ft
    24:00:00: Tank 2 is filling at 22.52 ft
    24:00:00: Tank 3 is filling at 30.79 ft
   
   
  Node Results at 0:00:00 hrs:
  --------------------------------------------------------
                     Demand      Head  Pressure  Chemical
  Node                  gpm        ft       psi      mg/L
  --------------------------------------------------------
  10                   0.00    146.68     -0.14      0.00
  15                 484.61    137.71     45.80      0.00
  20                   0.00    158.00     12.57      0.00
  35                1616.60    146.74     58.17      0.00
  40                   0.00    145.00      5.68      0.00
  50                   0.00    140.00     10.18      0.00
  60                   0.00    209.04     90.58      0.00
  601                  0.00    302.65    131.14      0.00
  61                   0.00    302.65    131.14      0.00
  101                245.04    146.68     45.36      0.00
  103                171.83    146.65     44.91      0.00
  105                174.63    147.94     51.75      0.00
  107                 70.49    147.93     54.57      0.00
  109                298.51    146.65     54.75      0.00
  111                183.10    147.21     59.45      0.00
  113                 25.81    147.23     62.93      0.00
  115                 67.21    148.00     58.06      0.00
  117                151.85    151.02     59.55      0.00
  119                227.21    158.28     67.71      0.00
  120                  0.00    155.93     67.56      0.00
  121                 53.70    161.59     70.88      0.00
  123                  0.00    166.03     67.18      0.00
  125                 58.82    160.92     64.96      0.00
  127                 22.78    158.94     44.60      0.00
  129                  0.00    158.93     46.76      0.00
  131                 55.15    158.91     66.25      0.00
  139                  7.60    155.14     53.79      0.00
  141                 12.71    152.48     64.33      0.00
  143                  8.00    145.58     65.03      0.00
  145                 35.64    153.24     65.96      0.00
  147                 11.03    153.84     58.64      0.00
  149                 34.92    154.10     59.84      0.00
  151                186.38    156.72     53.39      0.00
  153                 56.98    156.80     39.26      0.00
  157                 66.81    155.91     61.88      0.00
  159                 53.30    152.65     63.54      0.00
  161                 20.38    150.44     63.45      0.00
  163                 12.15    149.99     62.83      0.00
  164                  0.00    149.99     62.83      0.00
  166                  3.35    149.99     65.86      0.00
  167                 18.78    148.18     66.37      0.00
  169                  0.00    148.18     66.37      0.00
  171                 50.75    147.12     65.48      0.00
  173                  0.00    147.10     65.47      0.00
  177                 75.04    146.71     60.10      0.00
  179                  0.00    146.68     60.09      0.00
  181                  0.00    146.75     60.12      0.00
  183                  0.00    146.69     58.79      0.00
  184                  0.00    145.67     56.19      0.00
  185                 33.09    146.19     56.41      0.00
  187                  0.00    146.86     58.22      0.00
  189                139.22    147.13     62.02      0.00
  191                105.65    147.13     52.92      0.00
  193                 91.99    147.22     55.99      0.00
  195                  0.00    147.29     57.11      0.00
  197                 21.98    147.15     53.79      0.00
  199                153.92    142.47     62.60      0.00
  201                 57.55    141.82     61.41      0.00
  203               3998.77    141.69     60.53      0.00
  204                  0.00    146.62     54.43      0.00
  205                 84.31    142.42     52.61      0.00
  206                  0.00    141.36     60.82      0.00
  207                 89.51    141.70     57.50      0.00
  208                  0.00    140.97     54.15      0.00
  209                  1.12    140.30     61.66      0.00
  211                 11.18    140.07     57.66      0.00
  213                 17.98    140.00     57.63      0.00
  215                118.93    139.82     57.55      0.00
  217                 31.24    139.80     57.97      0.00
  219                 53.30    139.79     58.84      0.00
  225                 29.41    139.79     57.11      0.00
  229                 82.79    139.76     56.01      0.00
  231                 21.26    139.76     58.39      0.00
  237                 20.14    139.81     54.51      0.00
  239                 57.55    139.77     54.93      0.00
  241                  0.00    139.77     54.93      0.00
  243                  5.60    139.77     54.50      0.00
  247                 90.79    139.77     52.76      0.00
  249                  0.00    139.77     52.76      0.00
  251                 31.17    139.77     47.56      0.00
  253                 70.33    139.73     44.95      0.00
  255                 52.10    139.78     48.87      0.00
  257                  0.00    152.92     58.89      0.00
  259                  0.00    152.50     55.25      0.00
  261                  0.00    150.98     65.42      0.00
  263                  0.00    150.82     65.35      0.00
  265                  0.00    148.75     64.46      0.00
  267                  0.00    147.23     54.70      0.00
  269                  0.00    147.52     63.92      0.00
  271                  0.00    146.85     61.03      0.00
  273                  0.00    142.42     58.24      0.00
  275                  0.00    141.82     57.12      0.00
  River           -13138.85    220.00      0.00      0.00  Reservoir
  Lake                 0.00    167.00      0.00      0.00  Reservoir
  1                  728.93    145.00      5.68      0.00  Tank
  2                 -171.67    140.00     10.18      0.00  Tank
  3                 2549.55    158.00     12.57      0.00  Tank
   
   
  Link Results at 0:00:00 hrs:
  ----------------------------------------------
                       Flow  Velocity  Headloss
  Link                  gpm       fps   /1000ft
  ----------------------------------------------
  20               -2549.55      0.11      0.00
  40                -728.93      0.03      0.00
  50                 171.67      0.01      0.00
  60               13138.85      9.32      8.90
  101                  0.00      0.00      0.00
  103                168.56      0.27      0.02
  105               -413.59      1.17      0.49
  107                 35.44      0.10      0.01
  109                 -3.27      0.01      0.00
  111               -301.78      0.86      0.28
  112                494.86      1.40      0.69
  113                -64.93      0.18      0.02
  114                124.61      0.80      0.39
  115                -35.04      0.22      0.04
  116                 33.87      0.10      0.00
  117                623.66      1.77      1.06
  119               -721.73      2.05      1.39
  120               1136.84      3.22      3.21
  121               1018.71      2.89      2.62
  122                360.40      2.30      2.76
  123               9593.59      4.35      1.66
  125              13138.85      5.96      2.96
  129               3131.16      2.22      0.72
  131               2875.09      2.04      0.61
  133              -2549.55      2.60      1.19
  135                302.77      0.21      0.01
  137                 55.15      0.09      0.00
  145                247.62      1.58      1.38
  147                240.02      1.53      1.30
  149               -492.61      3.14      4.92
  151               -484.61      3.09      4.78
  153                265.29      0.75      0.22
  155                300.94      0.85      0.27
  159               -311.97      0.88      0.29
  161               -346.89      2.21      2.57
  163               -140.26      0.40      0.07
  169                197.24      1.26      0.90
  171                393.00      1.11      0.45
  173               7836.54      3.56      1.14
  175               7769.73      3.53      1.12
  177               7716.43      3.50      1.11
  179               7449.33      3.38      1.04
  180                  3.35      0.01      0.00
  181                  3.35      0.01      0.00
  183               7229.79      3.28      0.98
  185                -18.78      0.12      0.01
  186                331.99      2.12      2.37
  187               6602.51      3.00      0.83
  189               4401.27      2.00      0.39
  191              -2150.50      1.53      0.36
  193              -1616.60      1.15      0.21
  195                680.34      1.93      1.24
  197                605.30      1.72      1.00
  199               -123.62      0.35      0.05
  201               -728.93      2.07      1.41
  202                506.03      3.23      5.17
  203                207.13      1.32      0.99
  204                506.03      1.44      0.72
  205                331.99      0.94      0.33
  207                330.76      0.94      0.33
  209                150.26      0.96      0.55
  211                608.49      1.73      1.01
  213                181.73      0.52      0.11
  215                158.18      0.45      0.08
  217               -234.45      0.67      0.17
  219               -246.71      0.70      0.19
  221                246.71      1.57      1.37
  223                 52.93      0.15      0.01
  225                 74.91      0.21      0.02
  229               4401.27      3.12      1.16
  231               4109.73      2.91      1.02
  233               3998.77      2.84      1.13
  235                137.61      0.39      0.06
  237                456.80      1.30      0.59
  238                523.23      1.48      0.76
  239                155.95      0.44      0.08
  240                523.23      1.48      0.76
  241                523.23      1.48      0.76
  243                522.11      0.83      0.19
  245                312.75      0.50      0.07
  247                232.88      0.37      0.04
  249                113.96      0.18      0.01
  251                 53.30      0.11      0.01
  257                 29.41      0.08      0.00
  261                 61.88      0.39      0.11
  263                 21.26      0.06      0.00
  269                198.18      0.56      0.13
  271                 42.17      0.27      0.05
  273                135.87      0.39      0.06
  275                 32.80      0.09      0.00
  277                  5.60      0.02      0.00
  281                 27.20      0.11      0.01
  283                 45.52      0.13      0.01
  285                -34.11      0.10      0.00
  287                -29.48      0.12      0.01
  289                171.67      0.70      0.24
  291                 70.33      0.29      0.05
  293                 19.75      0.13      0.01
  295                 11.42      0.03      0.00
  297                478.52      3.05      4.66
  299                229.90      1.47      1.20
  301                229.90      1.47      1.20
  303                248.62      1.59      1.39
  305                145.14      0.41      0.07
  307                393.76      1.12      0.45
  309                204.04      1.30      0.96
  311                -45.86      0.13      0.01
  313                462.04      1.31      0.61
  315              -2296.94      1.63      0.40
  317                102.54      0.65      0.27
  319                 35.08      0.10      0.01
  321               7433.83      3.37      1.03
  323                 53.41      0.15      0.01
  325                146.45      0.93      0.52
  329              13138.85      5.96      3.00
  330                  0.00      0.00      0.00
  333                 -0.00      0.00      0.00
  10                   0.00      0.00      0.00  Pump
  335              13138.85      0.00    -93.61  Pump
   
   
  Node Results at 0:05:00 hrs:
  --------------------------------------------------------
                     Demand      Head  Pressure  Chemical
  Node                  gpm        ft       psi      mg/L
  --------------------------------------------------------
  10                   0.00    146.75     -0.11      0.00
  15                 484.61    137.78     45.83      0.00
  20                   0.00    158.08     12.60      0.00
  35                1616.60    146.80     58.19      0.00
  40                   0.00    145.09      5.71      0.00
  50                   0.00    139.94     10.16      0.00
  60                   0.00    209.04     90.58      0.00
  601                  0.00    302.67    131.15      0.00
  61                   0.00    302.67    131.15      0.00
  101                245.04    146.75     45.39      0.00
  103                171.83    146.72     44.94      0.00
  105                174.63    148.00     51.78      0.00
  107                 70.49    147.99     54.59      0.00
  109                298.51    146.72     54.78      0.00
  111                183.10    147.27     59.48      0.00
  113                 25.81    147.29     62.96      0.00
  115                 67.21    148.07     58.09      0.00
  117                151.85    151.09     59.57      0.00
  119                227.21    158.34     67.74      0.00
  120                  0.00    156.00     67.59      0.00
  121                 53.70    161.65     70.91      0.00
  123                  0.00    166.10     67.20      0.00
  125                 58.82    160.99     64.99      0.00
  127                 22.78    159.01     44.64      0.00
  129                  0.00    159.00     46.80      0.00
  131                 55.15    158.98     66.29      0.00
  139                  7.60    155.21     53.82      0.00
  141                 12.71    152.55     64.37      0.00
  143                  8.00    145.66     65.06      0.00
  145                 35.64    153.31     66.00      0.00
  147                 11.03    153.91     58.67      0.00
  149                 34.92    154.17     59.87      0.00
  151                186.38    156.79     53.42      0.00
  153                 56.98    156.87     39.29      0.00
  157                 66.81    155.97     61.91      0.00
  159                 53.30    152.71     63.57      0.00
  161                 20.38    150.50     63.48      0.00
  163                 12.15    150.05     62.85      0.00
  164                  0.00    150.05     62.85      0.00
  166                  3.35    150.05     65.89      0.00
  167                 18.78    148.24     66.40      0.00
  169                  0.00    148.24     66.40      0.00
  171                 50.75    147.18     65.51      0.00
  173                  0.00    147.16     65.50      0.00
  177                 75.04    146.77     60.13      0.00
  179                  0.00    146.74     60.12      0.00
  181                  0.00    146.81     60.15      0.00
  183                  0.00    146.75     58.82      0.00
  184                  0.00    145.73     56.21      0.00
  185                 33.09    146.24     56.44      0.00
  187                  0.00    146.92     58.24      0.00
  189                139.22    147.19     62.05      0.00
  191                105.65    147.20     52.95      0.00
  193                 91.99    147.29     56.02      0.00
  195                  0.00    147.35     57.13      0.00
  197                 21.98    147.21     53.82      0.00
  199                153.92    142.51     62.62      0.00
  201                 57.55    141.87     61.43      0.00
  203               3998.77    141.73     60.55      0.00
  204                  0.00    146.68     54.46      0.00
  205                 84.31    142.46     52.63      0.00
  206                  0.00    141.39     60.83      0.00
  207                 89.51    141.74     57.52      0.00
  208                  0.00    140.98     54.16      0.00
  209                  1.12    140.29     61.65      0.00
  211                 11.18    140.05     57.65      0.00
  213                 17.98    139.98     57.62      0.00
  215                118.93    139.80     57.54      0.00
  217                 31.24    139.78     57.97      0.00
  219                 53.30    139.77     58.83      0.00
  225                 29.41    139.78     57.10      0.00
  229                 82.79    139.74     56.00      0.00
  231                 21.26    139.73     58.38      0.00
  237                 20.14    139.77     54.50      0.00
  239                 57.55    139.74     54.92      0.00
  241                  0.00    139.74     54.92      0.00
  243                  5.60    139.74     54.48      0.00
  247                 90.79    139.73     52.75      0.00
  249                  0.00    139.73     52.75      0.00
  251                 31.17    139.73     47.55      0.00
  253                 70.33    139.69     44.93      0.00
  255                 52.10    139.74     48.85      0.00
  257                  0.00    152.99     58.92      0.00
  259                  0.00    152.57     55.27      0.00
  261                  0.00    151.04     65.45      0.00
  263                  0.00    150.88     65.38      0.00
  265                  0.00    148.82     64.48      0.00
  267                  0.00    147.30     54.72      0.00
  269                  0.00    147.58     63.95      0.00
  271                  0.00    146.91     61.06      0.00
  273                  0.00    142.46     58.26      0.00
  275                  0.00    141.86     57.14      0.00
  River           -13136.58    220.00      0.00      0.00  Reservoir
  Lake                 0.00    167.00      0.00      0.00  Reservoir
  1                  723.37    145.09      5.71      0.00  Tank
  2                 -163.17    139.94     10.16      0.00  Tank
  3                 2544.34    158.08     12.60      0.00  Tank
   
   
  Link Results at 0:05:00 hrs:
  ----------------------------------------------
                       Flow  Velocity  Headloss
  Link                  gpm       fps   /1000ft
  ----------------------------------------------
  20               -2544.34      0.11      0.00
  40                -723.37      0.03      0.00
  50                 163.17      0.01      0.00
  60               13136.58      9.32      8.90
  101                  0.00      0.00      0.00
  103                168.65      0.27      0.02
  105               -413.68      1.17      0.49
  107                 35.50      0.10      0.01
  109                 -3.18      0.01      0.00
  111               -301.69      0.86      0.28
  112                495.06      1.40      0.69
  113                -64.79      0.18      0.02
  114                124.68      0.80      0.39
  115                -34.98      0.22      0.04
  116                 34.07      0.10      0.00
  117                623.81      1.77      1.06
  119               -721.93      2.05      1.39
  120               1137.10      3.23      3.22
  121               1018.95      2.89      2.62
  122                360.49      2.30      2.76
  123               9596.25      4.36      1.66
  125              13136.58      5.96      2.96
  129               3126.14      2.22      0.72
  131               2870.01      2.04      0.61
  133              -2544.34      2.60      1.19
  135                302.89      0.21      0.01
  137                 55.15      0.09      0.00
  145                247.74      1.58      1.38
  147                240.14      1.53      1.30
  149               -492.61      3.14      4.92
  151               -484.61      3.09      4.78
  153                265.17      0.75      0.22
  155                300.82      0.85      0.27
  159               -311.84      0.88      0.29
  161               -346.77      2.21      2.57
  163               -140.32      0.40      0.07
  169                197.30      1.26      0.90
  171                392.82      1.11      0.45
  173               7839.12      3.56      1.14
  175               7772.31      3.53      1.12
  177               7719.01      3.50      1.11
  179               7451.89      3.38      1.04
  180                  3.35      0.01      0.00
  181                  3.35      0.01      0.00
  183               7232.37      3.28      0.98
  185                -18.78      0.12      0.01
  186                332.43      2.12      2.38
  187               6605.28      3.00      0.83
  189               4408.66      2.00      0.39
  191              -2145.88      1.52      0.36
  193              -1616.60      1.15      0.21
  195                675.74      1.92      1.23
  197                600.70      1.70      0.99
  199               -122.67      0.35      0.05
  201               -723.37      2.05      1.39
  202                507.14      3.24      5.19
  203                207.80      1.33      1.00
  204                507.14      1.44      0.72
  205                332.43      0.94      0.33
  207                330.47      0.94      0.33
  209                150.44      0.96      0.55
  211                608.31      1.73      1.01
  213                181.99      0.52      0.11
  215                158.27      0.45      0.08
  217               -234.56      0.67      0.17
  219               -246.74      0.70      0.19
  221                246.74      1.57      1.37
  223                 53.08      0.15      0.01
  225                 75.06      0.21      0.02
  229               4408.66      3.13      1.16
  231               4115.20      2.92      1.02
  233               3998.77      2.84      1.13
  235                139.54      0.40      0.07
  237                459.73      1.30      0.60
  238                531.72      1.51      0.79
  239                161.51      0.46      0.09
  240                531.72      1.51      0.79
  241                531.72      1.51      0.79
  243                530.60      0.85      0.19
  245                314.55      0.50      0.07
  247                232.88      0.37      0.04
  249                113.96      0.18      0.01
  251                 53.30      0.11      0.01
  257                 29.41      0.08      0.00
  261                 63.69      0.41      0.11
  263                 21.26      0.06      0.00
  269                204.86      0.58      0.13
  271                 40.36      0.26      0.05
  273                144.36      0.41      0.07
  275                 35.98      0.10      0.01
  277                  5.60      0.02      0.00
  281                 30.38      0.12      0.01
  283                 50.84      0.14      0.01
  285                -36.22      0.10      0.00
  287                -24.19      0.10      0.01
  289                163.17      0.67      0.21
  291                 70.33      0.29      0.05
  293                 16.55      0.11      0.01
  295                 14.61      0.04      0.00
  297                478.64      3.06      4.67
  299                229.95      1.47      1.20
  301                229.95      1.47      1.20
  303                248.68      1.59      1.39
  305                145.18      0.41      0.07
  307                393.86      1.12      0.45
  309                204.01      1.30      0.96
  311                -45.74      0.13      0.01
  313                461.85      1.31      0.61
  315              -2292.34      1.63      0.40
  317                102.63      0.66      0.27
  319                 36.90      0.10      0.01
  321               7436.38      3.38      1.03
  323                 58.88      0.17      0.01
  325                146.46      0.93      0.52
  329              13136.58      5.96      3.00
  330                  0.00      0.00      0.00
  333                 -0.00      0.00      0.00
  10                   0.00      0.00      0.00  Pump
  335              13136.58      0.00    -93.63  Pump
   
   
  Node Results at 0:10:00 hrs:
  --------------------------------------------------------
                     Demand      Head  Pressure  Chemical
  Node                  gpm        ft       psi      mg/L
  --------------------------------------------------------
  10                   0.00    146.81     -0.08      0.00
  15                 484.61    137.85     45.86      0.00
  20                   0.00    158.16     12.64      0.00
  35                1616.60    146.86     58.22      0.00
  40                   0.00    145.17      5.75      0.00
  50                   0.00    139.89     10.13      0.00
  60                   0.00    209.05     90.58      0.00
  601                  0.00    302.70    131.16      0.00
  61                   0.00    302.70    131.16      0.00
  101                245.04    146.81     45.41      0.00
  103                171.83    146.78     44.97      0.00
  105                174.63    148.07     51.81      0.00
  107                 70.49    148.06     54.62      0.00
  109                298.51    146.78     54.80      0.00
  111                183.10    147.33     59.50      0.00
  113                 25.81    147.36     62.98      0.00
  115                 67.21    148.13     58.12      0.00
  117                151.85    151.15     59.60      0.00
  119                227.21    158.41     67.77      0.00
  120                  0.00    156.06     67.62      0.00
  121                 53.70    161.72     70.94      0.00
  123                  0.00    166.17     67.23      0.00
  125                 58.82    161.06     65.02      0.00
  127                 22.78    159.09     44.67      0.00
  129                  0.00    159.08     46.83      0.00
  131                 55.15    159.06     66.32      0.00
  139                  7.60    155.29     53.85      0.00
  141                 12.71    152.62     64.40      0.00
  143                  8.00    145.73     65.09      0.00
  145                 35.64    153.38     66.03      0.00
  147                 11.03    153.98     58.70      0.00
  149                 34.92    154.24     59.90      0.00
  151                186.38    156.86     53.45      0.00
  153                 56.98    156.94     39.32      0.00
  157                 66.81    156.04     61.94      0.00
  159                 53.30    152.78     63.60      0.00
  161                 20.38    150.56     63.51      0.00
  163                 12.15    150.12     62.88      0.00
  164                  0.00    150.12     62.88      0.00
  166                  3.35    150.12     65.91      0.00
  167                 18.78    148.30     66.42      0.00
  169                  0.00    148.30     66.42      0.00
  171                 50.75    147.24     65.53      0.00
  173                  0.00    147.22     65.53      0.00
  177                 75.04    146.83     60.16      0.00
  179                  0.00    146.80     60.14      0.00
  181                  0.00    146.87     60.17      0.00
  183                  0.00    146.81     58.85      0.00
  184                  0.00    145.78     56.24      0.00
  185                 33.09    146.30     56.46      0.00
  187                  0.00    146.98     58.27      0.00
  189                139.22    147.25     62.07      0.00
  191                105.65    147.26     52.97      0.00
  193                 91.99    147.35     56.05      0.00
  195                  0.00    147.42     57.16      0.00
  197                 21.98    147.27     53.85      0.00
  199                153.92    142.56     62.64      0.00
  201                 57.55    141.91     61.45      0.00
  203               3998.77    141.78     60.57      0.00
  204                  0.00    146.74     54.48      0.00
  205                 84.31    142.51     52.65      0.00
  206                  0.00    141.41     60.84      0.00
  207                 89.51    141.78     57.53      0.00
  208                  0.00    141.00     54.16      0.00
  209                  1.12    140.28     61.65      0.00
  211                 11.18    140.04     57.65      0.00
  213                 17.98    139.97     57.62      0.00
  215                118.93    139.79     57.54      0.00
  217                 31.24    139.77     57.96      0.00
  219                 53.30    139.76     58.82      0.00
  225                 29.41    139.76     57.09      0.00
  229                 82.79    139.71     55.99      0.00
  231                 21.26    139.71     58.37      0.00
  237                 20.14    139.75     54.49      0.00
  239                 57.55    139.71     54.90      0.00
  241                  0.00    139.71     54.90      0.00
  243                  5.60    139.71     54.47      0.00
  247                 90.79    139.70     52.73      0.00
  249                  0.00    139.70     52.73      0.00
  251                 31.17    139.70     47.53      0.00
  253                 70.33    139.66     44.91      0.00
  255                 52.10    139.71     48.84      0.00
  257                  0.00    153.05     58.95      0.00
  259                  0.00    152.63     55.30      0.00
  261                  0.00    151.11     65.47      0.00
  263                  0.00    150.95     65.41      0.00
  265                  0.00    148.88     64.51      0.00
  267                  0.00    147.36     54.75      0.00
  269                  0.00    147.65     63.97      0.00
  271                  0.00    146.97     61.08      0.00
  273                  0.00    142.51     58.28      0.00
  275                  0.00    141.91     57.16      0.00
  River           -13134.30    220.00      0.00      0.00  Reservoir
  Lake                 0.00    167.00      0.00      0.00  Reservoir
  1                  717.97    145.17      5.75      0.00  Tank
  2                 -154.92    139.89     10.13      0.00  Tank
  3                 2539.21    158.16     12.64      0.00  Tank
   
   
  Link Results at 0:10:00 hrs:
  ----------------------------------------------
                       Flow  Velocity  Headloss
  Link                  gpm       fps   /1000ft
  ----------------------------------------------
  20               -2539.21      0.11      0.00
  40                -717.97      0.03      0.00
  50                 154.92      0.01      0.00
  60               13134.30      9.31      8.90
  101                  0.00      0.00      0.00
  103                168.73      0.27      0.02
  105               -413.77      1.17      0.49
  107                 35.56      0.10      0.01
  109                 -3.10      0.00      0.00
  111               -301.60      0.86      0.28
  112                495.25      1.40      0.69
  113                -64.65      0.18      0.02
  114                124.74      0.80      0.39
  115                -34.93      0.22      0.04
  116                 34.27      0.10      0.00
  117                623.95      1.77      1.06
  119               -722.13      2.05      1.39
  120               1137.35      3.23      3.22
  121               1019.18      2.89      2.63
  122                360.58      2.30      2.76
  123               9598.84      4.36      1.66
  125              13134.30      5.96      2.96
  129               3121.19      2.21      0.71
  131               2865.00      2.03      0.61
  133              -2539.21      2.59      1.18
  135                303.01      0.21      0.01
  137                 55.15      0.09      0.00
  145                247.86      1.58      1.38
  147                240.26      1.53      1.30
  149               -492.61      3.14      4.92
  151               -484.61      3.09      4.78
  153                265.05      0.75      0.22
  155                300.70      0.85      0.27
  159               -311.73      0.88      0.29
  161               -346.65      2.21      2.57
  163               -140.38      0.40      0.07
  169                197.36      1.26      0.90
  171                392.64      1.11      0.45
  173               7841.64      3.56      1.14
  175               7774.83      3.53      1.12
  177               7721.53      3.50      1.11
  179               7454.38      3.38      1.04
  180                  3.35      0.01      0.00
  181                  3.35      0.01      0.00
  183               7234.89      3.28      0.98
  185                -18.78      0.12      0.01
  186                332.86      2.12      2.38
  187               6607.97      3.00      0.83
  189               4415.83      2.00      0.39
  191              -2141.39      1.52      0.35
  193              -1616.60      1.15      0.21
  195                671.26      1.90      1.21
  197                596.23      1.69      0.97
  199               -121.75      0.35      0.05
  201               -717.97      2.04      1.37
  202                508.21      3.24      5.21
  203                208.44      1.33      1.00
  204                508.21      1.44      0.72
  205                332.86      0.94      0.33
  207                330.19      0.94      0.33
  209                150.62      0.96      0.55
  211                608.13      1.73      1.01
  213                182.23      0.52      0.11
  215                158.37      0.45      0.08
  217               -234.66      0.67      0.17
  219               -246.76      0.70      0.19
  221                246.76      1.58      1.37
  223                 53.22      0.15      0.01
  225                 75.20      0.21      0.02
  229               4415.83      3.13      1.17
  231               4120.47      2.92      1.03
  233               3998.77      2.84      1.13
  235                141.44      0.40      0.07
  237                462.61      1.31      0.61
  238                539.97      1.53      0.81
  239                166.88      0.47      0.09
  240                539.97      1.53      0.81
  241                539.97      1.53      0.81
  243                538.85      0.86      0.20
  245                316.33      0.50      0.07
  247                232.88      0.37      0.04
  249                113.96      0.18      0.01
  251                 53.30      0.11      0.01
  257                 29.41      0.08      0.00
  261                 65.47      0.42      0.12
  263                 21.26      0.06      0.00
  269                211.34      0.60      0.14
  271                 38.59      0.25      0.04
  273                152.61      0.43      0.08
  275                 39.07      0.11      0.01
  277                  5.60      0.02      0.00
  281                 33.47      0.14      0.01
  283                 56.00      0.16      0.01
  285                -38.71      0.11      0.01
  287                -18.61      0.08      0.00
  289                154.92      0.63      0.19
  291                 70.33      0.29      0.05
  293                 13.88      0.09      0.01
  295                 17.29      0.05      0.00
  297                478.74      3.06      4.67
  299                230.01      1.47      1.20
  301                230.01      1.47      1.20
  303                248.74      1.59      1.39
  305                145.21      0.41      0.07
  307                393.95      1.12      0.45
  309                203.98      1.30      0.96
  311                -45.62      0.13      0.01
  313                461.66      1.31      0.61
  315              -2287.86      1.62      0.40
  317                102.72      0.66      0.27
  319                 38.71      0.11      0.01
  321               7438.88      3.38      1.03
  323                 64.15      0.18      0.02
  325                146.47      0.93      0.52
  329              13134.30      5.96      3.00
  330                  0.00      0.00      0.00
  333                 -0.00      0.00      0.00
  10                   0.00      0.00      0.00  Pump
  335              13134.31      0.00    -93.65  Pump
   
   
  Node Results at 0:15:00 hrs:
  --------------------------------------------------------
                     Demand      Head  Pressure  Chemical
  Node                  gpm        ft       psi      mg/L
  --------------------------------------------------------
  10                   0.00    146.87     -0.06      0.00
  15                 484.61    137.92     45.89      0.00
  20                   0.00    158.24     12.67      0.00
  35                1616.60    146.92     58.25      0.00
  40                   0.00    145.26      5.79      0.00
  50                   0.00    139.83     10.11      0.00
  60                   0.00    209.05     90.58      0.00
  601                  0.00    302.72    131.17      0.00
  61                   0.00    302.72    131.17      0.00
  101                245.04    146.87     45.44      0.00
  103                171.83    146.84     44.99      0.00
  105                174.63    148.13     51.83      0.00
  107                 70.49    148.12     54.65      0.00
  109                298.51    146.84     54.83      0.00
  111                183.10    147.39     59.53      0.00
  113                 25.81    147.42     63.01      0.00
  115                 67.21    148.19     58.15      0.00
  117                151.85    151.22     59.63      0.00
  119                227.21    158.48     67.80      0.00
  120                  0.00    156.13     67.65      0.00
  121                 53.70    161.79     70.97      0.00
  123                  0.00    166.23     67.26      0.00
  125                 58.82    161.13     65.05      0.00
  127                 22.78    159.17     44.70      0.00
  129                  0.00    159.16     46.86      0.00
  131                 55.15    159.14     66.36      0.00
  139                  7.60    155.36     53.89      0.00
  141                 12.71    152.69     64.43      0.00
  143                  8.00    145.80     65.12      0.00
  145                 35.64    153.45     66.06      0.00
  147                 11.03    154.05     58.73      0.00
  149                 34.92    154.31     59.93      0.00
  151                186.38    156.93     53.48      0.00
  153                 56.98    157.00     39.35      0.00
  157                 66.81    156.11     61.96      0.00
  159                 53.30    152.84     63.63      0.00
  161                 20.38    150.62     63.53      0.00
  163                 12.15    150.18     62.91      0.00
  164                  0.00    150.18     62.91      0.00
  166                  3.35    150.18     65.94      0.00
  167                 18.78    148.36     66.45      0.00
  169                  0.00    148.36     66.45      0.00
  171                 50.75    147.30     65.56      0.00
  173                  0.00    147.28     65.55      0.00
  177                 75.04    146.90     60.18      0.00
  179                  0.00    146.87     60.17      0.00
  181                  0.00    146.93     60.20      0.00
  183                  0.00    146.88     58.88      0.00
  184                  0.00    145.84     56.26      0.00
  185                 33.09    146.36     56.49      0.00
  187                  0.00    147.04     58.30      0.00
  189                139.22    147.32     62.10      0.00
  191                105.65    147.32     53.00      0.00
  193                 91.99    147.41     56.07      0.00
  195                  0.00    147.48     57.19      0.00
  197                 21.98    147.33     53.87      0.00
  199                153.92    142.60     62.66      0.00
  201                 57.55    141.96     61.47      0.00
  203               3998.77    141.82     60.58      0.00
  204                  0.00    146.80     54.51      0.00
  205                 84.31    142.55     52.67      0.00
  206                  0.00    141.44     60.85      0.00
  207                 89.51    141.81     57.55      0.00
  208                  0.00    141.01     54.17      0.00
  209                  1.12    140.28     61.65      0.00
  211                 11.18    140.03     57.64      0.00
  213                 17.98    139.96     57.61      0.00
  215                118.93    139.78     57.53      0.00
  217                 31.24    139.76     57.96      0.00
  219                 53.30    139.75     58.82      0.00
  225                 29.41    139.75     57.09      0.00
  229                 82.79    139.69     55.98      0.00
  231                 21.26    139.68     58.36      0.00
  237                 20.14    139.72     54.47      0.00
  239                 57.55    139.67     54.89      0.00
  241                  0.00    139.67     54.89      0.00
  243                  5.60    139.67     54.45      0.00
  247                 90.79    139.67     52.72      0.00
  249                  0.00    139.67     52.72      0.00
  251                 31.17    139.66     47.52      0.00
  253                 70.33    139.62     44.90      0.00
  255                 52.10    139.67     48.82      0.00
  257                  0.00    153.12     58.98      0.00
  259                  0.00    152.69     55.33      0.00
  261                  0.00    151.17     65.50      0.00
  263                  0.00    151.01     65.43      0.00
  265                  0.00    148.94     64.53      0.00
  267                  0.00    147.42     54.78      0.00
  269                  0.00    147.71     64.00      0.00
  271                  0.00    147.04     61.11      0.00
  273                  0.00    142.55     58.30      0.00
  275                  0.00    141.95     57.17      0.00
  River           -13132.03    220.00      0.00      0.00  Reservoir
  Lake                 0.00    167.00      0.00      0.00  Reservoir
  1                  712.71    145.26      5.79      0.00  Tank
  2                 -146.86    139.83     10.11      0.00  Tank
  3                 2534.14    158.24     12.67      0.00  Tank
   
   
  Link Results at 0:15:00 hrs:
  ----------------------------------------------
                       Flow  Velocity  Headloss
  Link                  gpm       fps   /1000ft
  ----------------------------------------------
  20               -2534.14      0.11      0.00
  40                -712.71      0.03      0.00
  50                 146.86      0.01      0.00
  60               13132.03      9.31      8.89
  101                  0.00      0.00      0.00
  103                168.82      0.27      0.02
  105               -413.85      1.17      0.49
  107                 35.61      0.10      0.01
  109                 -3.01      0.00      0.00
  111               -301.52      0.86      0.28
  112                495.44      1.41      0.69
  113                -64.52      0.18      0.02
  114                124.79      0.80      0.39
  115                -34.87      0.22      0.04
  116                 34.47      0.10      0.00
  117                624.09      1.77      1.06
  119               -722.32      2.05      1.39
  120               1137.59      3.23      3.22
  121               1019.41      2.89      2.63
  122                360.67      2.30      2.76
  123               9601.38      4.36      1.66
  125              13132.03      5.96      2.96
  129               3116.29      2.21      0.71
  131               2860.05      2.03      0.61
  133              -2534.14      2.59      1.18
  135                303.12      0.21      0.01
  137                 55.15      0.09      0.00
  145                247.98      1.58      1.38
  147                240.38      1.53      1.30
  149               -492.61      3.14      4.92
  151               -484.61      3.09      4.78
  153                264.94      0.75      0.22
  155                300.58      0.85      0.27
  159               -311.61      0.88      0.29
  161               -346.53      2.21      2.57
  163               -140.44      0.40      0.07
  169                197.42      1.26      0.91
  171                392.47      1.11      0.45
  173               7844.10      3.56      1.14
  175               7777.30      3.53      1.12
  177               7723.99      3.51      1.11
  179               7456.82      3.38      1.04
  180                  3.35      0.01      0.00
  181                  3.35      0.01      0.00
  183               7237.36      3.28      0.98
  185                -18.78      0.12      0.01
  186                333.28      2.13      2.39
  187               6610.61      3.00      0.83
  189               4422.84      2.01      0.39
  191              -2137.02      1.52      0.35
  193              -1616.60      1.15      0.21
  195                666.91      1.89      1.20
  197                591.87      1.68      0.96
  199               -120.85      0.34      0.05
  201               -712.71      2.02      1.35
  202                509.26      3.25      5.23
  203                209.07      1.33      1.01
  204                509.26      1.44      0.73
  205                333.28      0.95      0.33
  207                329.92      0.94      0.33
  209                150.80      0.96      0.55
  211                607.96      1.72      1.01
  213                182.47      0.52      0.11
  215                158.45      0.45      0.08
  217               -234.77      0.67      0.17
  219               -246.79      0.70      0.19
  221                246.79      1.58      1.37
  223                 53.36      0.15      0.01
  225                 75.34      0.21      0.02
  229               4422.84      3.14      1.17
  231               4125.59      2.93      1.03
  233               3998.77      2.84      1.13
  235                143.33      0.41      0.07
  237                465.46      1.32      0.61
  238                548.03      1.55      0.83
  239                172.09      0.49      0.10
  240                548.03      1.55      0.83
  241                548.03      1.55      0.83
  243                546.91      0.87      0.20
  245                318.09      0.51      0.07
  247                232.88      0.37      0.04
  249                113.96      0.18      0.01
  251                 53.30      0.11      0.01
  257                 29.41      0.08      0.00
  261                 67.22      0.43      0.12
  263                 21.26      0.06      0.00
  269                217.64      0.62      0.15
  271                 36.83      0.24      0.04
  273                160.67      0.46      0.09
  275                 42.09      0.12      0.01
  277                  5.60      0.02      0.00
  281                 36.49      0.15      0.01
  283                 61.03      0.17      0.01
  285                -41.40      0.12      0.01
  287                -12.89      0.05      0.00
  289                146.86      0.60      0.18
  291                 70.33      0.29      0.05
  293                 11.54      0.07      0.00
  295                 19.63      0.06      0.00
  297                478.85      3.06      4.67
  299                230.06      1.47      1.20
  301                230.06      1.47      1.20
  303                248.79      1.59      1.39
  305                145.24      0.41      0.07
  307                394.03      1.12      0.45
  309                203.96      1.30      0.96
  311                -45.50      0.13      0.01
  313                461.48      1.31      0.61
  315              -2283.51      1.62      0.40
  317                102.82      0.66      0.27
  319                 40.51      0.11      0.01
  321               7441.32      3.38      1.03
  323                 69.27      0.20      0.02
  325                146.48      0.93      0.52
  329              13132.03      5.96      3.00
  330                  0.00      0.00      0.00
  333                 -0.00      0.00      0.00
  10                   0.00      0.00      0.00  Pump
  335              13132.03      0.00    -93.67  Pump
   
   
  Node Results at 0:20:00 hrs:
  --------------------------------------------------------
                     Demand      Head  Pressure  Chemical
  Node                  gpm        ft       psi      mg/L
  --------------------------------------------------------
  10                   0.00    146.93     -0.03      0.00
  15                 484.61    137.99     45.93      0.00
  20                   0.00    158.32     12.71      0.00
  35                1616.60    146.99     58.27      0.00
  40                   0.00    145.34      5.82      0.00
  50                   0.00    139.78     10.09      0.00
  60                   0.00    209.05     90.58      0.00
  601                  0.00    302.74    131.18      0.00
  61                   0.00    302.74    131.18      0.00
  101                245.04    146.93     45.47      0.00
  103                171.83    146.90     45.02      0.00
  105                174.63    148.19     51.86      0.00
  107                 70.49    148.18     54.68      0.00
  109                298.51    146.90     54.86      0.00
  111                183.10    147.45     59.56      0.00
  113                 25.81    147.48     63.04      0.00
  115                 67.21    148.25     58.17      0.00
  117                151.85    151.28     59.66      0.00
  119                227.21    158.54     67.83      0.00
  120                  0.00    156.19     67.68      0.00
  121                 53.70    161.86     71.00      0.00
  123                  0.00    166.30     67.29      0.00
  125                 58.82    161.20     65.08      0.00
  127                 22.78    159.24     44.74      0.00
  129                  0.00    159.23     46.90      0.00
  131                 55.15    159.22     66.39      0.00
  139                  7.60    155.43     53.92      0.00
  141                 12.71    152.76     64.46      0.00
  143                  8.00    145.87     65.15      0.00
  145                 35.64    153.52     66.09      0.00
  147                 11.03    154.12     58.76      0.00
  149                 34.92    154.38     59.96      0.00
  151                186.38    156.99     53.51      0.00
  153                 56.98    157.07     39.37      0.00
  157                 66.81    156.17     61.99      0.00
  159                 53.30    152.90     63.65      0.00
  161                 20.38    150.69     63.56      0.00
  163                 12.15    150.24     62.93      0.00
  164                  0.00    150.24     62.93      0.00
  166                  3.35    150.24     65.97      0.00
  167                 18.78    148.42     66.48      0.00
  169                  0.00    148.42     66.48      0.00
  171                 50.75    147.36     65.59      0.00
  173                  0.00    147.34     65.58      0.00
  177                 75.04    146.96     60.21      0.00
  179                  0.00    146.93     60.20      0.00
  181                  0.00    146.99     60.23      0.00
  183                  0.00    146.94     58.90      0.00
  184                  0.00    145.90     56.29      0.00
  185                 33.09    146.42     56.51      0.00
  187                  0.00    147.10     58.32      0.00
  189                139.22    147.38     62.13      0.00
  191                105.65    147.38     53.03      0.00
  193                 91.99    147.47     56.10      0.00
  195                  0.00    147.54     57.21      0.00
  197                 21.98    147.39     53.90      0.00
  199                153.92    142.65     62.68      0.00
  201                 57.55    142.00     61.49      0.00
  203               3998.77    141.87     60.60      0.00
  204                  0.00    146.86     54.54      0.00
  205                 84.31    142.60     52.69      0.00
  206                  0.00    141.47     60.86      0.00
  207                 89.51    141.85     57.56      0.00
  208                  0.00    141.03     54.18      0.00
  209                  1.12    140.27     61.65      0.00
  211                 11.18    140.02     57.64      0.00
  213                 17.98    139.94     57.60      0.00
  215                118.93    139.76     57.53      0.00
  217                 31.24    139.75     57.95      0.00
  219                 53.30    139.74     58.81      0.00
  225                 29.41    139.74     57.08      0.00
  229                 82.79    139.66     55.97      0.00
  231                 21.26    139.66     58.35      0.00
  237                 20.14    139.69     54.46      0.00
  239                 57.55    139.64     54.87      0.00
  241                  0.00    139.64     54.87      0.00
  243                  5.60    139.64     54.44      0.00
  247                 90.79    139.64     52.70      0.00
  249                  0.00    139.64     52.70      0.00
  251                 31.17    139.63     47.50      0.00
  253                 70.33    139.59     44.88      0.00
  255                 52.10    139.64     48.81      0.00
  257                  0.00    153.18     59.01      0.00
  259                  0.00    152.76     55.36      0.00
  261                  0.00    151.23     65.53      0.00
  263                  0.00    151.08     65.46      0.00
  265                  0.00    149.00     64.56      0.00
  267                  0.00    147.48     54.80      0.00
  269                  0.00    147.77     64.03      0.00
  271                  0.00    147.10     61.14      0.00
  273                  0.00    142.60     58.32      0.00
  275                  0.00    142.00     57.19      0.00
  River           -13129.76    220.00      0.00      0.00  Reservoir
  Lake                 0.00    167.00      0.00      0.00  Reservoir
  1                  707.58    145.34      5.82      0.00  Tank
  2                 -138.99    139.78     10.09      0.00  Tank
  3                 2529.12    158.32     12.71      0.00  Tank
   
   
  Link Results at 0:20:00 hrs:
  ----------------------------------------------
                       Flow  Velocity  Headloss
  Link                  gpm       fps   /1000ft
  ----------------------------------------------
  20               -2529.12      0.11      0.00
  40                -707.58      0.03      0.00
  50                 138.99      0.01      0.00
  60               13129.76      9.31      8.89
  101                  0.00      0.00      0.00
  103                168.90      0.27      0.02
  105               -413.94      1.17      0.49
  107                 35.67      0.10      0.01
  109                 -2.93      0.00      0.00
  111               -301.43      0.86      0.28
  112                495.63      1.41      0.69
  113                -64.38      0.18      0.02
  114                124.85      0.80      0.39
  115                -34.82      0.22      0.04
  116                 34.66      0.10      0.01
  117                624.23      1.77      1.06
  119               -722.51      2.05      1.39
  120               1137.83      3.23      3.22
  121               1019.63      2.89      2.63
  122                360.75      2.30      2.76
  123               9603.87      4.36      1.66
  125              13129.76      5.96      2.96
  129               3111.44      2.21      0.71
  131               2855.14      2.02      0.60
  133              -2529.12      2.58      1.17
  135                303.24      0.22      0.01
  137                 55.15      0.09      0.00
  145                248.09      1.58      1.38
  147                240.49      1.54      1.30
  149               -492.61      3.14      4.92
  151               -484.61      3.09      4.78
  153                264.82      0.75      0.22
  155                300.46      0.85      0.27
  159               -311.49      0.88      0.29
  161               -346.41      2.21      2.56
  163               -140.49      0.40      0.07
  169                197.47      1.26      0.91
  171                392.30      1.11      0.45
  173               7846.53      3.56      1.14
  175               7779.72      3.53      1.12
  177               7726.42      3.51      1.11
  179               7459.22      3.39      1.04
  180                  3.35      0.01      0.00
  181                  3.35      0.01      0.00
  183               7239.78      3.29      0.98
  185                -18.78      0.12      0.01
  186                333.69      2.13      2.39
  187               6613.20      3.00      0.83
  189               4429.69      2.01      0.40
  191              -2132.76      1.51      0.35
  193              -1616.60      1.15      0.21
  195                662.66      1.88      1.18
  197                587.62      1.67      0.95
  199               -119.97      0.34      0.05
  201               -707.58      2.01      1.34
  202                510.29      3.26      5.25
  203                209.69      1.34      1.01
  204                510.29      1.45      0.73
  205                333.69      0.95      0.33
  207                329.65      0.94      0.32
  209                150.98      0.96      0.55
  211                607.80      1.72      1.01
  213                182.71      0.52      0.11
  215                158.54      0.45      0.08
  217               -234.87      0.67      0.17
  219               -246.81      0.70      0.19
  221                246.81      1.58      1.37
  223                 53.49      0.15      0.01
  225                 75.48      0.21      0.02
  229               4429.69      3.14      1.17
  231               4130.56      2.93      1.03
  233               3998.77      2.84      1.13
  235                145.20      0.41      0.07
  237                468.27      1.33      0.62
  238                555.91      1.58      0.85
  239                177.15      0.50      0.10
  240                555.91      1.58      0.85
  241                555.91      1.58      0.85
  243                554.79      0.89      0.21
  245                319.82      0.51      0.08
  247                232.88      0.37      0.04
  249                113.96      0.18      0.01
  251                 53.30      0.11      0.01
  257                 29.41      0.08      0.00
  261                 68.95      0.44      0.13
  263                 21.26      0.06      0.00
  269                223.78      0.63      0.16
  271                 35.10      0.22      0.04
  273                168.55      0.48      0.09
  275                 45.05      0.13      0.01
  277                  5.60      0.02      0.00
  281                 39.45      0.16      0.02
  283                 65.95      0.19      0.02
  285                -44.49      0.13      0.01
  287                 -6.85      0.03      0.00
  289                138.99      0.57      0.16
  291                 70.33      0.29      0.05
  293                  9.70      0.06      0.00
  295                 21.47      0.06      0.00
  297                478.96      3.06      4.67
  299                230.11      1.47      1.20
  301                230.11      1.47      1.20
  303                248.85      1.59      1.39
  305                145.27      0.41      0.07
  307                394.12      1.12      0.45
  309                203.93      1.30      0.96
  311                -45.39      0.13      0.01
  313                461.31      1.31      0.60
  315              -2279.26      1.62      0.40
  317                102.90      0.66      0.27
  319                 42.30      0.12      0.01
  321               7443.71      3.38      1.03
  323                 74.25      0.21      0.02
  325                146.49      0.94      0.52
  329              13129.76      5.96      3.00
  330                  0.00      0.00      0.00
  333                 -0.00      0.00      0.00
  10                   0.00      0.00      0.00  Pump
  335              13129.76      0.00    -93.69  Pump
   
   
  Node Results at 0:25:00 hrs:
  --------------------------------------------------------
                     Demand      Head  Pressure  Chemical
  Node                  gpm        ft       psi      mg/L
  --------------------------------------------------------
  10                   0.00    147.00     -0.00      0.00
  15                 484.61    138.06     45.96      0.00
  20                   0.00    158.40     12.74      0.00
  35                1616.60    147.05     58.30      0.00
  40                   0.00    145.42      5.86      0.00
  50                   0.00    139.74     10.07      0.00
  60                   0.00    209.06     90.58      0.00
  601                  0.00    302.77    131.19      0.00
  61                   0.00    302.77    131.19      0.00
  101                245.04    147.00     45.49      0.00
  103                171.83    146.97     45.05      0.00
  105                174.63    148.25     51.89      0.00
  107                 70.49    148.25     54.70      0.00
  109                298.51    146.97     54.88      0.00
  111                183.10    147.51     59.59      0.00
  113                 25.81    147.54     63.06      0.00
  115                 67.21    148.32     58.20      0.00
  117                151.85    151.34     59.68      0.00
  119                227.21    158.61     67.86      0.00
  120                  0.00    156.26     67.71      0.00
  121                 53.70    161.93     71.03      0.00
  123                  0.00    166.37     67.32      0.00
  125                 58.82    161.27     65.11      0.00
  127                 22.78    159.32     44.77      0.00
  129                  0.00    159.31     46.93      0.00
  131                 55.15    159.29     66.42      0.00
  139                  7.60    155.51     53.95      0.00
  141                 12.71    152.83     64.49      0.00
  143                  8.00    145.94     65.19      0.00
  145                 35.64    153.59     66.12      0.00
  147                 11.03    154.19     58.80      0.00
  149                 34.92    154.45     59.99      0.00
  151                186.38    157.06     53.54      0.00
  153                 56.98    157.14     39.40      0.00
  157                 66.81    156.24     62.02      0.00
  159                 53.30    152.97     63.68      0.00
  161                 20.38    150.75     63.59      0.00
  163                 12.15    150.30     62.96      0.00
  164                  0.00    150.30     62.96      0.00
  166                  3.35    150.30     65.99      0.00
  167                 18.78    148.48     66.50      0.00
  169                  0.00    148.48     66.50      0.00
  171                 50.75    147.42     65.61      0.00
  173                  0.00    147.40     65.60      0.00
  177                 75.04    147.02     60.24      0.00
  179                  0.00    146.99     60.23      0.00
  181                  0.00    147.05     60.25      0.00
  183                  0.00    147.00     58.93      0.00
  184                  0.00    145.96     56.31      0.00
  185                 33.09    146.48     56.54      0.00
  187                  0.00    147.16     58.35      0.00
  189                139.22    147.44     62.15      0.00
  191                105.65    147.44     53.05      0.00
  193                 91.99    147.53     56.13      0.00
  195                  0.00    147.60     57.24      0.00
  197                 21.98    147.46     53.93      0.00
  199                153.92    142.70     62.70      0.00
[...]
  219                 80.57    135.62     57.03      0.00
  225                 44.46    135.63     55.30      0.00
  229                125.15    135.95     54.36      0.02
  231                 32.14    135.94     56.74      0.00
  237                 30.44    136.20     52.95      1.25
  239                 86.99    136.23     53.40      0.00
  241                  0.00    136.23     53.40      0.00
  243                  8.46    136.23     52.96      0.00
  247                137.24    136.26     51.24      0.00
  249                  0.00    136.26     51.24      8.03
  251                 47.11    136.33     46.07      0.00
  253                106.31    136.88     43.71      0.00
  255                 78.76    136.98     47.66      0.00
  257                  0.00    149.31     57.33      0.00
  259                  0.00    148.77     53.63      0.00
  261                  0.00    146.83     63.62      0.00
  263                  0.00    146.61     63.53      0.00
  265                  0.00    146.25     63.37      0.00
  267                  0.00    144.19     53.38      0.00
  269                  0.00    144.88     62.77      0.00
  271                  0.00    144.49     60.01      0.00
  273                  0.00    138.24     56.43      0.00
  275                  0.00    137.45     55.23      0.00
  River           -13234.69    220.00      0.00      0.00  Reservoir
  Lake                 0.00    167.00      0.00      0.00  Reservoir
  1                 -983.03    147.41      6.72      0.00  Tank
  2                 -605.01    139.23      9.85      0.00  Tank
  3                  -37.77    159.79     13.34      0.00  Tank
   
   
  Link Results at 23:55:00 hrs:
  ----------------------------------------------
                       Flow  Velocity  Headloss
  Link                  gpm       fps   /1000ft
  ----------------------------------------------
  20                  37.77      0.00      0.00
  40                 983.03      0.04      0.00
  50                 605.01      0.03      0.00
  60               13234.69      9.39      9.02
  101                  0.00      0.00      0.00
  103                121.12      0.19      0.01
  105               -491.52      1.39      0.68
  107                -27.70      0.08      0.00
  109               -138.62      0.22      0.02
  111               -589.85      1.67      0.95
  112                440.18      1.25      0.55
  113               -256.85      0.73      0.20
  114                 74.76      0.48      0.15
  115               -134.25      0.86      0.44
  116               -221.11      0.63      0.15
  117                727.79      2.06      1.41
  119               -750.79      2.13      1.49
  120               1312.87      3.72      4.20
  121               1161.66      3.30      3.35
  122                395.24      2.52      3.27
  123              10109.80      4.59      1.82
  125              11225.93      5.10      2.21
  129                639.71      0.45      0.04
  131                332.33      0.24      0.01
  133                 37.77      0.04      0.00
  135                335.67      0.24      0.01
  137                 83.36      0.13      0.01
  145                252.31      1.61      1.43
  147                240.82      1.54      1.31
  149               -325.32      2.08      2.28
  151               -313.23      2.00      2.13
  153                103.71      0.29      0.04
  155                157.59      0.45      0.08
  159               -174.26      0.49      0.10
  161               -227.05      1.45      1.17
  163               -132.32      0.38      0.06
  169                218.46      1.39      1.09
  171                376.46      1.07      0.42
  173               8077.02      3.67      1.20
  175               7976.03      3.62      1.18
  177               7895.46      3.58      1.15
  179               7573.10      3.44      1.07
  180                  5.07      0.01      0.00
  181                  5.07      0.01      0.00
  183               7308.94      3.32      1.00
  185                -28.39      0.18      0.02
  186                266.40      1.70      1.58
  187               6608.04      3.00      0.83
  189               5183.33      2.35      0.53
  191              -1348.00      0.96      0.15
  193              -1866.09      1.32      0.27
  195               -409.95      1.16      0.49
  197               -523.38      1.48      0.76
  199                459.65      1.30      0.60
  201                983.03      2.79      2.46
  202                573.12      3.66      6.52
  203                356.74      2.28      2.71
  204                573.12      1.63      0.90
  205                266.40      0.76      0.22
  207               -102.91      0.29      0.04
  209                283.20      1.81      1.77
  211                672.51      1.91      1.22
  213                -16.80      0.05      0.00
  215               -173.63      0.49      0.10
  217               -345.73      0.98      0.35
  219               -291.54      0.83      0.26
  221                291.54      1.86      1.86
  223               -202.83      0.58      0.13
  225               -169.60      0.48      0.09
  229               5183.33      3.68      1.57
  231               4784.97      3.39      1.35
  233               4728.61      3.35      1.54
  235                165.69      0.47      0.09
  237                492.76      1.40      0.68
  238                445.42      1.26      0.57
  239                 87.97      0.25      0.03
  240                445.42      1.26      0.57
  241                445.42      1.26      0.57
  243                443.72      0.71      0.14
  245                423.87      0.68      0.13
  247                352.03      0.56      0.09
  249                172.26      0.27      0.02
  251                 80.57      0.17      0.01
  257                 44.46      0.13      0.01
  261                 44.65      0.29      0.06
  263                 32.14      0.09      0.00
  269                  2.94      0.01      0.00
  271                112.63      0.72      0.32
  273               -140.13      0.40      0.07
  275                -79.85      0.23      0.02
  277                  8.46      0.02      0.00
  281                -88.31      0.36      0.07
  283               -147.27      0.42      0.07
  285                 36.77      0.10      0.01
  287               -262.32      1.07      0.52
  289                605.01      2.47      2.43
  291                106.31      0.43      0.10
  293                157.62      1.01      0.60
  295               -110.50      0.31      0.04
  297                546.45      3.49      5.96
  299                262.90      1.68      1.54
  301                262.90      1.68      1.54
  303                283.55      1.81      1.77
  305                181.34      0.51      0.11
  307                464.89      1.32      0.61
  309                240.72      1.54      1.31
  311               -414.36      1.18      0.50
  313                564.36      1.60      0.88
  315              -1456.14      1.03      0.17
  317                118.60      0.76      0.35
  319                 47.09      0.13      0.01
  321               7549.67      3.43      1.06
  323                -30.63      0.09      0.00
  325                108.14      0.69      0.30
  329              13234.69      6.01      3.04
  330                  0.00      0.00      0.00
  333                 -0.00      0.00      0.00
  10                   0.00      0.00      0.00  Pump
  335              13234.69      0.00    -92.77  Pump
   
   
  Node Results at 24:00:00 hrs:
  --------------------------------------------------------
                     Demand      Head  Pressure  Chemical
  Node                  gpm        ft       psi      mg/L
  --------------------------------------------------------
  10                   0.00    148.31      0.57      0.00
  15                 484.61    139.39     46.53      0.00
  20                   0.00    159.79     13.34      0.00
  35                1616.60    148.38     58.88      0.00
  40                   0.00    147.29      6.67      0.00
  50                   0.00    139.02      9.76      0.00
  60                   0.00    209.12     90.61      0.00
  601                  0.00    303.21    131.38      0.00
  61                   0.00    303.21    131.38      0.00
  101                245.04    148.31     46.06      0.00
  103                171.83    148.28     45.62      0.00
  105                174.63    149.56     52.46      0.00
  107                 70.49    149.56     55.27      0.00
  109                298.51    148.28     55.45      0.00
  111                183.10    148.83     60.15      0.00
  113                 25.81    148.86     63.63      0.00
  115                 67.21    149.63     58.77      0.00
  117                151.85    152.65     60.25      0.00
  119                227.21    159.91     68.42      0.00
  120                  0.00    157.56     68.27      0.00
  121                 53.70    163.23     71.59      0.00
  123                  0.00    167.64     67.87      0.00
  125                 58.82    162.59     65.68      0.00
  127                 22.78    160.68     45.36      0.00
  129                  0.00    160.67     47.52      0.00
  131                 55.15    160.66     67.01      0.00
  139                  7.60    156.85     54.53      0.00
  141                 12.71    154.16     65.06      0.00
  143                  8.00    147.27     65.76      0.00
  145                 35.64    154.91     66.69      0.00
  147                 11.03    155.51     59.37      0.00
  149                 34.92    155.77     60.56      0.00
  151                186.38    158.37     54.11      0.00
  153                 56.98    158.45     39.97      0.00
  157                 66.81    157.54     62.58      0.00
  159                 53.30    154.27     64.25      0.00
  161                 20.38    152.05     64.15      0.00
  163                 12.15    151.60     63.52      0.00
  164                  0.00    151.60     63.52      0.00
  166                  3.35    151.60     66.56      0.00
  167                 18.78    149.78     67.07      0.00
  169                  0.00    149.78     67.07      0.00
  171                 50.75    148.72     66.18      0.00
  173                  0.00    148.70     66.17      0.00
  177                 75.04    148.36     60.82      0.00
  179                  0.00    148.34     60.81      0.00
  181                  0.00    148.39     60.83      0.00
  183                  0.00    148.35     59.51      0.00
  184                  0.00    147.21     56.85      0.00
  185                 33.09    147.77     57.10      0.00
  187                  0.00    148.47     58.92      0.00
  189                139.22    148.76     62.72      0.00
  191                105.65    148.76     53.62      0.00
  193                 91.99    148.85     56.70      0.00
  195                  0.00    148.92     57.81      0.00
  197                 21.98    148.77     54.50      0.00
  199                153.92    143.77     63.16      0.00
  201                 57.55    143.09     61.96      0.00
  203               3998.77    142.96     61.08      0.00
  204                  0.00    148.23     55.13      0.00
  205                 84.31    143.68     53.16      0.00
  206                  0.00    142.17     61.17      0.00
  207                 89.51    142.76     57.96      0.00
  208                  0.00    141.51     54.38      0.00
  209                  1.12    140.36     61.68      0.00
  211                 11.18    139.97     57.62      0.00
  213                 17.98    139.88     57.58      0.00
  215                118.93    139.70     57.50      0.00
  217                 31.24    139.69     57.93      0.00
  219                 53.30    139.67     58.79      0.00
  225                 29.41    139.68     57.06      0.00
  229                 82.79    139.29     55.81      0.20
  231                 21.26    139.29     58.19      0.00
  237                 20.14    139.29     54.29      0.71
  239                 57.55    139.14     54.66      0.00
  241                  0.00    139.14     54.66      0.00
  243                  5.60    139.14     54.22      0.00
  247                 90.79    139.11     52.48      0.00
  249                  0.00    139.11     52.48     11.34
  251                 31.17    139.08     47.26      0.00
  253                 70.33    138.97     44.62      0.00
  255                 52.10    139.02     48.54      0.00
  257                  0.00    154.55     59.60      0.00
  259                  0.00    154.13     55.95      0.00
  261                  0.00    152.61     66.12      0.00
  263                  0.00    152.45     66.06      0.00
  265                  0.00    150.36     65.15      0.00
  267                  0.00    148.86     55.40      0.00
  269                  0.00    149.14     64.62      0.00
  271                  0.00    148.48     61.74      0.00
  273                  0.00    143.69     58.79      0.00
  275                  0.00    143.07     57.66      0.00
  River           -13084.52    220.00      0.00      0.00  Reservoir
  Lake                 0.00    167.00      0.00      0.00  Reservoir
  1                  566.60    147.29      6.67      0.00  Tank
  2                    2.62    139.02      9.76      0.00  Tank
  3                 2483.26    159.79     13.34      0.00  Tank
   
   
  Link Results at 24:00:00 hrs:
  ----------------------------------------------
                       Flow  Velocity  Headloss
  Link                  gpm       fps   /1000ft
  ----------------------------------------------
  20               -2483.26      0.10      0.00
  40                -566.60      0.02      0.00
  50                  -2.62      0.00      0.00
  60               13084.52      9.28      8.84
  101                  0.00      0.00      0.00
  103                168.76      0.27      0.02
  105               -413.79      1.17      0.49
  107                 35.57      0.10      0.01
  109                 -3.07      0.00      0.00
  111               -301.58      0.86      0.28
  112                495.32      1.41      0.69
  113                -65.04      0.18      0.02
  114                124.73      0.80      0.39
  115                -34.92      0.22      0.04
  116                 33.88      0.10      0.00
  117                623.99      1.77      1.06
  119               -722.17      2.05      1.39
  120               1137.33      3.23      3.22
  121               1019.24      2.89      2.63
  122                360.68      2.30      2.76
  123               9603.44      4.36      1.66
  125              13084.52      5.94      2.94
  129               3066.70      2.17      0.69
  131               2810.17      1.99      0.59
  133              -2483.26      2.54      1.13
  135                304.13      0.22      0.01
  137                 55.15      0.09      0.00
  145                248.98      1.59      1.39
  147                241.39      1.54      1.31
  149               -492.61      3.14      4.92
  151               -484.61      3.09      4.78
  153                263.93      0.75      0.22
  155                299.57      0.85      0.27
  159               -310.60      0.88      0.29
  161               -345.52      2.21      2.55
  163               -140.72      0.40      0.07
  169                197.70      1.26      0.91
  171                391.18      1.11      0.45
  173               7847.73      3.56      1.14
  175               7780.92      3.53      1.12
  177               7727.61      3.51      1.11
  179               7460.92      3.39      1.04
  180                  3.35      0.01      0.00
  181                  3.35      0.01      0.00
  183               7242.50      3.29      0.98
  185                -18.78      0.12      0.01
  186                339.24      2.17      2.47
  187               6621.92      3.01      0.83
  189               4552.22      2.07      0.42
  191              -2018.95      1.43      0.32
  193              -1616.60      1.15      0.21
  195                547.50      1.55      0.83
  197                472.46      1.34      0.63
  199                -94.14      0.27      0.03
  201               -566.60      1.61      0.89
  202                529.36      3.38      5.62
  203                223.21      1.42      1.14
  204                529.36      1.50      0.78
  205                339.24      0.96      0.34
  207                317.35      0.90      0.30
  209                154.64      0.99      0.58
  211                601.79      1.71      0.99
  213                184.60      0.52      0.11
  215                154.56      0.44      0.08
  217               -236.56      0.67      0.18
  219               -246.31      0.70      0.19
  221                246.31      1.57      1.36
  223                 53.69      0.15      0.01
  225                 75.68      0.21      0.02
  229               4552.22      3.23      1.23
  231               4216.05      2.99      1.07
  233               3998.77      2.84      1.13
  235                182.25      0.52      0.11
  237                522.80      1.48      0.76
  238                697.52      1.98      1.30
  239                264.23      0.75      0.22
  240                697.52      1.98      1.30
  241                697.52      1.98      1.30
  243                696.40      1.11      0.32
  245                353.51      0.56      0.09
  247                232.88      0.37      0.04
  249                113.96      0.18      0.01
  251                 53.30      0.11      0.01
  257                 29.41      0.08      0.00
  261                102.64      0.66      0.27
  263                 21.26      0.06      0.00
  269                331.70      0.94      0.33
  271                  1.41      0.01      0.00
  273                310.16      0.88      0.29
  275                 98.08      0.28      0.03
  277                  5.60      0.02      0.00
  281                 92.48      0.38      0.07
  283                154.53      0.44      0.08
  285                -81.37      0.23      0.02
  287                 83.06      0.34      0.06
  289                 -2.62      0.01      0.00
  291                 70.33      0.29      0.05
  293                -41.99      0.27      0.05
  295                 73.16      0.21      0.02
  297                478.77      3.06      4.67
  299                230.02      1.47      1.20
  301                230.02      1.47      1.20
  303                248.75      1.59      1.39
  305                145.22      0.41      0.07
  307                393.97      1.12      0.45
  309                202.91      1.30      0.95
  311                -48.36      0.14      0.01
  313                456.64      1.30      0.59
  315              -2164.10      1.53      0.36
  317                104.50      0.67      0.28
  319                 77.75      0.22      0.02
  321               7445.41      3.38      1.04
  323                159.73      0.45      0.08
  325                145.15      0.93      0.51
  329              13084.52      5.94      2.98
  330                  0.00      0.00      0.00
  333                 -0.00      0.00      0.00
  10                   0.00      0.00      0.00  Pump
  335              13084.52      0.00    -94.09  Pump
   
  Analysis ended Wed May 06 16:52:27 2020
