  Page 1                                    Wed May 06 16:53:44 2020

  ******************************************************************
  *                           E P A N E T                          *
  *                   Hydraulic and Water Quality                  *
  *                   Analysis for Pipe Networks                   *
  *                         Version 2.00.12                        *
  ******************************************************************
  
  Analysis begun Wed May 06 16:53:44 2020

   
  Hydraulic Status:
  -----------------------------------------------------------------------
     0:00:00: Balanced after 5 trials
     0:00:00: Reservoir River is emptying
     0:00:00: Reservoir Lake is closed
     0:00:00: Tank 1 is filling at 13.10 ft
     0:00:00: Tank 2 is emptying at 23.50 ft
     0:00:00: Tank 3 is filling at 29.00 ft
   
     0:05:00: Balanced after 2 trials
   
     0:10:00: Balanced after 2 trials
   
     0:15:00: Balanced after 2 trials
   
     0:20:00: Balanced after 2 trials
   
     0:25:00: Balanced after 2 trials
   
     0:30:00: Balanced after 2 trials
   
     0:35:00: Balanced after 2 trials
   
     0:40:00: Balanced after 2 trials
   
     0:45:00: Balanced after 2 trials
   
     0:50:00: Balanced after 2 trials
   
     0:55:00: Balanced after 2 trials
   
     1:00:00: Pump 10 changed by timer control
     1:00:00: Balanced after 7 trials
     1:00:00: Reservoir Lake is emptying
     1:00:00: Pump 10 changed from closed to open
   
     1:05:00: Balanced after 2 trials
   
     1:10:00: Balanced after 2 trials
   
     1:15:00: Balanced after 2 trials
   
     1:20:00: Balanced after 2 trials
   
     1:25:00: Balanced after 2 trials
   
     1:30:00: Balanced after 2 trials
   
     1:35:00: Balanced after 2 trials
   
     1:40:00: Balanced after 2 trials
   
     1:45:00: Balanced after 2 trials
   
     1:50:00: Balanced after 2 trials
   
     1:55:00: Balanced after 2 trials
   
     2:00:00: Balanced after 3 trials
   
     2:05:00: Balanced after 2 trials
   
     2:10:00: Balanced after 2 trials
   
     2:15:00: Balanced after 1 trials
   
     2:20:00: Balanced after 1 trials
   
     2:25:00: Balanced after 1 trials
   
     2:30:00: Balanced after 1 trials
   
     2:35:00: Balanced after 1 trials
   
     2:40:00: Balanced after 1 trials
   
     2:45:00: Balanced after 1 trials
   
     2:50:00: Balanced after 1 trials
   
     2:55:00: Balanced after 1 trials
   
     3:00:00: Balanced after 2 trials
   
     3:05:00: Balanced after 1 trials
   
     3:10:00: Balanced after 1 trials
   
     3:15:00: Balanced after 1 trials
   
     3:20:00: Balanced after 1 trials
   
     3:25:00: Balanced after 1 trials
   
     3:30:00: Balanced after 1 trials
     3:30:00: Tank 2 is filling at 21.24 ft
   
     3:35:00: Balanced after 1 trials
   
     3:40:00: Balanced after 1 trials
   
     3:45:00: Balanced after 1 trials
   
     3:50:00: Balanced after 1 trials
   
     3:55:00: Balanced after 1 trials
   
     4:00:00: Balanced after 3 trials
   
     4:05:00: Balanced after 1 trials
   
     4:10:00: Balanced after 1 trials
   
     4:15:00: Balanced after 1 trials
   
     4:20:00: Balanced after 1 trials
   
     4:25:00: Balanced after 1 trials
   
     4:30:00: Balanced after 1 trials
   
     4:35:00: Balanced after 1 trials
   
     4:36:10: Pump 335 changed by Tank 1 control
     4:36:10: Pipe 330 changed by Tank 1 control
     4:36:10: Balanced after 4 trials
     4:36:10: Pipe 330 changed from closed to open
     4:36:10: Pump 335 changed from open to closed
   
     4:40:00: Balanced after 2 trials
   
     4:45:00: Balanced after 2 trials
   
     4:50:00: Balanced after 2 trials
   
     4:55:00: Balanced after 2 trials
   
     5:00:00: Balanced after 3 trials
     5:00:00: Tank 3 is emptying at 34.48 ft
   
     5:05:00: Balanced after 2 trials
   
     5:10:00: Balanced after 2 trials
     5:10:00: Tank 3 is filling at 34.48 ft
   
     5:15:00: Balanced after 2 trials
   
     5:20:00: Balanced after 2 trials
   
     5:25:00: Balanced after 2 trials
   
     5:30:00: Balanced after 2 trials
   
     5:35:00: Balanced after 2 trials
   
     5:40:00: Balanced after 2 trials
   
     5:45:00: Balanced after 2 trials
   
     5:50:00: Balanced after 2 trials
   
     5:55:00: Balanced after 2 trials
   
     6:00:00: Balanced after 3 trials
   
     6:05:00: Balanced after 2 trials
   
     6:10:00: Balanced after 2 trials
   
     6:15:00: Balanced after 2 trials
   
     6:20:00: Balanced after 2 trials
   
     6:25:00: Balanced after 2 trials
   
     6:30:00: Balanced after 2 trials
   
     6:35:00: Balanced after 2 trials
   
     6:40:00: Balanced after 2 trials
   
     6:45:00: Balanced after 2 trials
   
     6:50:00: Balanced after 2 trials
   
     6:55:00: Balanced after 2 trials
   
     7:00:00: Balanced after 3 trials
   
     7:05:00: Balanced after 1 trials
   
     7:10:00: Balanced after 1 trials
   
     7:15:00: Balanced after 1 trials
   
     7:20:00: Balanced after 1 trials
   
     7:25:00: Balanced after 1 trials
   
     7:30:00: Balanced after 1 trials
   
     7:35:00: Balanced after 1 trials
   
     7:40:00: Balanced after 1 trials
   
     7:45:00: Balanced after 1 trials
   
     7:50:00: Balanced after 1 trials
   
     7:55:00: Balanced after 1 trials
   
     8:00:00: Balanced after 2 trials
   
     8:05:00: Balanced after 1 trials
   
     8:10:00: Balanced after 1 trials
   
     8:15:00: Balanced after 1 trials
   
     8:20:00: Balanced after 1 trials
   
     8:21:59: Balanced after 4 trials
     8:21:59: Tank 3 is closed at 35.50 ft
     8:21:59: Pipe 20 changed from open to temporarily closed
   
     8:25:00: Balanced after 1 trials
   
     8:30:00: Balanced after 1 trials
   
     8:35:00: Balanced after 1 trials
   
     8:40:00: Balanced after 1 trials
   
     8:45:00: Balanced after 1 trials
   
     8:50:00: Balanced after 1 trials
   
     8:55:00: Balanced after 1 trials
   
     9:00:00: Balanced after 4 trials
     9:00:00: Tank 1 is emptying at 23.73 ft
     9:00:00: Tank 3 is emptying at 35.50 ft
     9:00:00: Pipe 20 changed from temporarily closed to open
   
     9:05:00: Balanced after 1 trials
   
     9:10:00: Balanced after 1 trials
   
     9:15:00: Balanced after 1 trials
   
     9:20:00: Balanced after 1 trials
   
     9:25:00: Balanced after 1 trials
   
     9:30:00: Balanced after 1 trials
   
     9:35:00: Balanced after 1 trials
   
     9:40:00: Balanced after 1 trials
   
     9:45:00: Balanced after 1 trials
   
     9:50:00: Balanced after 1 trials
   
     9:55:00: Balanced after 1 trials
   
    10:00:00: Balanced after 3 trials
    10:00:00: Tank 1 is filling at 23.61 ft
   
    10:05:00: Balanced after 2 trials
   
    10:10:00: Balanced after 2 trials
   
    10:15:00: Balanced after 2 trials
   
    10:20:00: Balanced after 2 trials
   
    10:25:00: Balanced after 2 trials
   
    10:30:00: Balanced after 2 trials
   
    10:35:00: Balanced after 2 trials
   
    10:40:00: Balanced after 2 trials
   
    10:45:00: Balanced after 2 trials
   
    10:50:00: Balanced after 2 trials
   
    10:55:00: Balanced after 2 trials
   
    11:00:00: Balanced after 3 trials
    11:00:00: Tank 1 is emptying at 23.77 ft
   
    11:05:00: Balanced after 1 trials
   
    11:10:00: Balanced after 1 trials
   
    11:15:00: Balanced after 1 trials
   
    11:20:00: Balanced after 1 trials
   
    11:25:00: Balanced after 1 trials
   
    11:30:00: Balanced after 1 trials
   
    11:35:00: Balanced after 1 trials
   
    11:40:00: Balanced after 1 trials
   
    11:45:00: Balanced after 1 trials
   
    11:50:00: Balanced after 1 trials
   
    11:55:00: Balanced after 1 trials
   
    12:00:00: Balanced after 2 trials
   
    12:05:00: Balanced after 1 trials
   
    12:10:00: Balanced after 1 trials
    12:10:00: Tank 2 is emptying at 29.47 ft
   
    12:15:00: Balanced after 1 trials
   
    12:20:00: Balanced after 1 trials
   
    12:25:00: Balanced after 1 trials
   
    12:30:00: Balanced after 1 trials
   
    12:35:00: Balanced after 1 trials
   
    12:40:00: Balanced after 1 trials
   
    12:45:00: Balanced after 1 trials
   
    12:50:00: Balanced after 1 trials
   
    12:55:00: Balanced after 1 trials
   
    13:00:00: Balanced after 3 trials
   
    13:05:00: Balanced after 1 trials
   
    13:10:00: Balanced after 1 trials
   
    13:15:00: Balanced after 1 trials
   
    13:20:00: Balanced after 1 trials
   
    13:25:00: Balanced after 1 trials
   
    13:30:00: Balanced after 1 trials
   
    13:35:00: Balanced after 1 trials
   
    13:40:00: Balanced after 1 trials
   
    13:45:00: Balanced after 1 trials
   
    13:50:00: Balanced after 1 trials
   
    13:55:00: Balanced after 1 trials
   
    14:00:00: Balanced after 4 trials
    14:00:00: Tank 1 is filling at 22.52 ft
    14:00:00: Tank 2 is filling at 28.74 ft
   
    14:05:00: Balanced after 2 trials
   
    14:10:00: Balanced after 2 trials
   
    14:15:00: Balanced after 2 trials
   
    14:20:00: Balanced after 2 trials
   
    14:25:00: Balanced after 2 trials
   
    14:30:00: Balanced after 2 trials
   
    14:35:00: Balanced after 2 trials
   
    14:40:00: Balanced after 2 trials
   
    14:45:00: Balanced after 2 trials
   
    14:50:00: Balanced after 2 trials
   
    14:55:00: Balanced after 2 trials
   
    15:00:00: Pump 10 changed by timer control
    15:00:00: Balanced after 5 trials
    15:00:00: Reservoir Lake is closed
    15:00:00: Tank 1 is emptying at 22.97 ft
    15:00:00: Tank 2 is emptying at 29.27 ft
    15:00:00: Pump 10 changed from open to closed
   
    15:05:00: Balanced after 2 trials
   
    15:10:00: Balanced after 2 trials
   
    15:15:00: Balanced after 2 trials
   
    15:20:00: Balanced after 2 trials
   
    15:25:00: Balanced after 2 trials
   
    15:30:00: Balanced after 2 trials
   
    15:35:00: Balanced after 2 trials
   
    15:40:00: Balanced after 2 trials
   
    15:45:00: Balanced after 2 trials
   
    15:50:00: Balanced after 2 trials
   
    15:55:00: Balanced after 2 trials
   
    16:00:00: Balanced after 4 trials
   
    16:05:00: Balanced after 1 trials
   
    16:10:00: Balanced after 1 trials
   
    16:15:00: Balanced after 1 trials
   
    16:20:00: Balanced after 1 trials
   
    16:25:00: Balanced after 1 trials
   
    16:30:00: Balanced after 1 trials
   
    16:35:00: Balanced after 1 trials
   
    16:40:00: Balanced after 1 trials
   
    16:45:00: Balanced after 1 trials
   
    16:50:00: Balanced after 1 trials
   
    16:55:00: Balanced after 1 trials
   
    17:00:00: Balanced after 4 trials
    17:00:00: Tank 2 is filling at 28.57 ft
   
    17:05:00: Balanced after 2 trials
   
    17:10:00: Balanced after 2 trials
   
    17:15:00: Balanced after 2 trials
   
    17:20:00: Balanced after 2 trials
   
    17:25:00: Balanced after 2 trials
   
    17:30:00: Balanced after 2 trials
   
    17:35:00: Balanced after 2 trials
   
    17:40:00: Balanced after 2 trials
   
    17:45:00: Balanced after 2 trials
   
    17:50:00: Balanced after 2 trials
   
    17:55:00: Balanced after 2 trials
   
    18:00:00: Balanced after 3 trials
    18:00:00: Tank 2 is emptying at 29.17 ft
   
    18:05:00: Balanced after 1 trials
   
    18:10:00: Balanced after 1 trials
   
    18:15:00: Balanced after 1 trials
   
    18:20:00: Balanced after 1 trials
   
    18:25:00: Balanced after 1 trials
   
    18:30:00: Balanced after 1 trials
   
    18:35:00: Balanced after 1 trials
   
    18:40:00: Balanced after 1 trials
   
    18:45:00: Balanced after 1 trials
   
    18:50:00: Balanced after 1 trials
   
    18:55:00: Balanced after 1 trials
   
    19:00:00: Balanced after 2 trials
   
    19:05:00: Balanced after 1 trials
   
    19:10:00: Balanced after 1 trials
   
    19:15:00: Balanced after 1 trials
   
    19:20:00: Balanced after 1 trials
   
    19:25:00: Balanced after 1 trials
   
    19:30:00: Balanced after 1 trials
   
    19:35:00: Balanced after 1 trials
   
    19:40:00: Balanced after 1 trials
   
    19:45:00: Balanced after 1 trials
   
    19:50:00: Balanced after 1 trials
   
    19:55:00: Balanced after 1 trials
   
    20:00:00: Balanced after 3 trials
   
    20:05:00: Balanced after 1 trials
   
    20:10:00: Balanced after 1 trials
   
    20:15:00: Balanced after 1 trials
   
    20:20:00: Balanced after 1 trials
   
    20:25:00: Balanced after 1 trials
   
    20:30:00: Balanced after 1 trials
   
    20:35:00: Balanced after 1 trials
   
    20:40:00: Balanced after 1 trials
   
    20:45:00: Balanced after 1 trials
   
    20:50:00: Balanced after 1 trials
   
    20:55:00: Balanced after 1 trials
   
    21:00:00: Balanced after 3 trials
   
    21:05:00: Balanced after 1 trials
   
    21:10:00: Balanced after 1 trials
   
    21:15:00: Balanced after 1 trials
   
    21:20:00: Balanced after 1 trials
   
    21:25:00: Balanced after 1 trials
   
    21:30:00: Balanced after 1 trials
   
    21:35:00: Balanced after 1 trials
   
    21:40:00: Balanced after 1 trials
   
    21:45:00: Balanced after 1 trials
   
    21:50:00: Balanced after 1 trials
   
    21:55:00: Balanced after 1 trials
   
    22:00:00: Balanced after 3 trials
   
    22:05:00: Balanced after 2 trials
   
    22:05:36: Pump 335 changed by Tank 1 control
    22:05:36: Pipe 330 changed by Tank 1 control
    22:05:36: Balanced after 5 trials
    22:05:36: Tank 3 is filling at 29.95 ft
    22:05:36: Pipe 330 changed from open to closed
    22:05:36: Pump 335 changed from closed to open
   
    22:10:00: Balanced after 2 trials
   
    22:15:00: Balanced after 2 trials
   
    22:20:00: Balanced after 2 trials
   
    22:25:00: Balanced after 2 trials
   
    22:30:00: Balanced after 2 trials
   
    22:35:00: Balanced after 2 trials
   
    22:40:00: Balanced after 2 trials
   
    22:45:00: Balanced after 2 trials
   
    22:50:00: Balanced after 2 trials
   
    22:55:00: Balanced after 2 trials
   
    23:00:00: Balanced after 3 trials
   
    23:05:00: Balanced after 2 trials
   
    23:10:00: Balanced after 2 trials
   
    23:15:00: Balanced after 2 trials
   
    23:20:00: Balanced after 2 trials
   
    23:25:00: Balanced after 2 trials
   
    23:30:00: Balanced after 2 trials
   
    23:35:00: Balanced after 2 trials
   
    23:40:00: Balanced after 2 trials
   
    23:45:00: Balanced after 2 trials
   
    23:50:00: Balanced after 2 trials
   
    23:55:00: Balanced after 2 trials
   
    24:00:00: Balanced after 4 trials
    24:00:00: Tank 1 is filling at 14.95 ft
   
   
  Node Results at 0:00:00 hrs:
  --------------------------------------------------------
                     Demand      Head  Pressure  Chemical
  Node                  gpm        ft       psi      mg/L
  --------------------------------------------------------
  10                   0.00    146.16     -0.37      0.00
  15                 642.94    123.89     39.81      0.00
  20                   0.00    158.00     12.57      0.00
  35                1624.76    146.52     58.07      0.00
  40                   0.00    145.00      5.68      0.00
  50                   0.00    140.00     10.18      0.00
  60                   0.00    209.03     90.57      0.00
  601                  0.00    302.56    131.10      0.00
  61                   0.00    302.56    131.10      0.00
  101                258.33    146.16     45.13      0.00
  103                181.15    146.13     44.68      0.00
  105                184.10    147.44     51.54      0.00
  107                 74.31    147.44     54.35      0.00
  109                314.70    146.13     54.52      0.00
  111                193.04    146.80     59.27      0.00
  113                 27.21    146.86     62.77      0.00
  115                 70.86    147.56     57.87      0.00
  117                160.09    150.58     59.35      0.00
  119                239.54    157.95     67.57      0.00
  120                  0.00    155.56     67.41      0.00
  121                 56.62    161.31     70.76      0.00
  123                  0.00    165.76     67.06      0.00
  125                 62.02    160.68     64.85      0.00
  127                 24.02    158.82     44.55      0.00
  129                  0.00    158.81     46.71      0.00
  131                 58.14    158.79     66.20      0.00
  139                  8.01    152.93     52.83      0.00
  141                 13.40    148.75     62.72      0.00
  143                  8.43    137.19     61.39      0.00
  145                 37.58    150.08     64.60      0.00
  147                 11.63    151.08     57.45      0.00
  149                 36.82    151.51     58.72      0.00
  151                196.49    155.66     52.93      0.00
  153                 60.07    155.76     38.80      0.00
  157                 70.43    155.60     61.75      0.00
  159                 56.20    152.37     63.42      0.00
  161                 21.49    150.18     63.34      0.00
  163                 12.81    149.74     62.71      0.00
  164                  0.00    149.74     62.71      0.00
  166                  3.54    149.74     65.75      0.00
  167                 19.80    147.94     66.27      0.00
  169                  0.00    147.94     66.27      0.00
  171                 53.50    146.91     65.39      0.00
  173                  0.00    146.89     65.38      0.00
  177                 79.11    146.49     60.01      0.00
  179                  0.00    146.46     60.00      0.00
  181                  0.00    146.53     60.03      0.00
  183                  0.00    146.47     58.70      0.00
  184                  0.00    145.44     56.09      0.00
  185                 34.88    145.94     56.30      0.00
  187                  0.00    146.55     58.08      0.00
  189                146.77    146.83     61.89      0.00
  191                111.38    146.76     52.76      0.00
  193                 96.98    146.86     55.83      0.00
  195                  0.00    146.93     56.95      0.00
  197                 23.17    146.77     53.63      0.00
  199                162.28    142.40     62.57      0.00
  201                 60.67    141.78     61.39      0.00
  203               3882.81    141.65     60.51      0.00
  204                  0.00    146.33     54.31      0.00
  205                 88.89    142.34     52.58      0.00
  206                  0.00    141.28     60.78      0.00
  207                 94.37    141.64     57.47      0.00
  208                  0.00    140.88     54.11      0.00
  209                  1.18    140.19     61.61      0.00
  211                 11.79    139.96     57.61      0.00
  213                 18.96    139.88     57.58      0.00
  215                125.38    139.68     57.49      0.00
  217                 32.94    139.66     57.92      0.00
  219                 56.20    139.65     58.78      0.00
  225                 31.01    139.65     57.05      0.00
  229                 87.28    139.65     55.96      0.00
  231                 22.41    139.65     58.34      0.00
  237                 21.23    139.71     54.47      0.00
  239                 60.67    139.68     54.89      0.00
  241                  0.00    139.68     54.89      0.00
  243                  5.90    139.68     54.46      0.00
  247                 95.72    139.68     52.72      0.00
  249                  0.00    139.68     52.72      0.00
  251                 32.86    139.68     47.52      0.00
  253                 74.15    139.65     44.91      0.00
  255                 54.93    139.71     48.84      0.00
  257                  0.00    152.51     58.71      0.00
  259                  0.00    152.08     55.06      0.00
  261                  0.00    150.53     65.23      0.00
  263                  0.00    150.37     65.16      0.00
  265                  0.00    148.51     64.35      0.00
  267                  0.00    146.89     54.55      0.00
  269                  0.00    147.26     63.81      0.00
  271                  0.00    146.64     60.94      0.00
  273                  0.00    142.34     58.21      0.00
  275                  0.00    141.78     57.10      0.00
  River           -13147.89    220.00      0.00      0.00  Reservoir
  Lake                 0.00    167.00      0.00      0.00  Reservoir
  1                  677.11    145.00      5.68      0.00  Tank
  2                 -201.85    140.00     10.18      0.00  Tank
  3                 2376.69    158.00     12.57      0.00  Tank
   
   
  Link Results at 0:00:00 hrs:
  ----------------------------------------------
                       Flow  Velocity  Headloss
  Link                  gpm       fps   /1000ft
  ----------------------------------------------
  20               -2376.69      0.10      0.00
  40                -677.11      0.03      0.00
  50                 201.85      0.01      0.00
  60               13147.89      9.32      8.91
  101                  0.00      0.00      0.00
  103                160.58      0.26      0.02
  105               -418.91      1.19      0.51
  107                 26.46      0.08      0.00
  109                -20.57      0.03      0.00
  111               -335.28      0.95      0.33
  112                483.45      1.37      0.66
  113                -98.41      0.28      0.03
  114                118.84      0.76      0.35
  115                -47.85      0.31      0.07
  116                 -6.79      0.02      0.00
  117                629.47      1.79      1.08
  119               -720.99      2.05      1.38
  120               1147.01      3.25      3.27
  121               1027.77      2.92      2.67
  122                363.54      2.32      2.80
  123               9675.71      4.39      1.68
  125              13147.89      5.97      2.97
  129               3052.02      2.16      0.68
  131               2772.95      1.97      0.57
  133              -2376.69      2.43      1.05
  135                372.23      0.26      0.01
  137                 58.14      0.09      0.00
  145                314.09      2.00      2.14
  147                306.08      1.95      2.04
  149               -651.37      4.16      8.26
  151               -642.94      4.10      8.06
  153                358.69      1.02      0.38
  155                396.26      1.12      0.46
  159               -407.89      1.16      0.48
  161               -444.71      2.84      4.07
  163               -156.99      0.45      0.08
  169                217.06      1.39      1.08
  171                484.21      1.37      0.66
  173               7804.95      3.54      1.13
  175               7734.52      3.51      1.11
  177               7678.32      3.49      1.10
  179               7405.75      3.36      1.02
  180                  3.54      0.01      0.00
  181                  3.54      0.01      0.00
  183               7178.39      3.26      0.97
  185                -19.80      0.13      0.01
  186                314.74      2.01      2.15
  187               6535.46      2.97      0.81
  189               4326.26      1.96      0.38
  191              -2155.69      1.53      0.36
  193              -1624.76      1.15      0.21
  195                671.65      1.91      1.21
  197                592.54      1.68      0.96
  199                -84.57      0.24      0.03
  201               -677.11      1.92      1.23
  202                493.51      3.15      4.94
  203                213.65      1.36      1.05
  204                493.51      1.40      0.69
  205                314.74      0.89      0.30
  207                298.22      0.85      0.27
  209                155.00      0.99      0.58
  211                623.13      1.77      1.06
  213                159.74      0.45      0.08
  215                117.58      0.33      0.05
  217               -240.75      0.68      0.18
  219               -251.08      0.71      0.20
  221                251.08      1.60      1.41
  223                 30.37      0.09      0.00
  225                 53.55      0.15      0.01
  229               4326.26      3.07      1.12
  231               4015.91      2.85      0.98
  233               3882.81      2.75      1.07
  235                148.08      0.42      0.07
  237                453.07      1.29      0.58
  238                530.75      1.51      0.78
  239                172.05      0.49      0.10
  240                530.75      1.51      0.78
  241                530.75      1.51      0.78
  243                529.57      0.85      0.19
  245                325.38      0.52      0.08
  247                245.52      0.39      0.05
  249                120.14      0.19      0.01
  251                 56.20      0.12      0.01
  257                 31.01      0.09      0.00
  261                 60.90      0.39      0.10
  263                 22.41      0.06      0.00
  269                192.40      0.55      0.12
  271                 48.80      0.31      0.07
  273                122.37      0.35      0.05
  275                 26.77      0.08      0.00
  277                  5.90      0.02      0.00
  281                 20.87      0.09      0.00
  283                 34.93      0.10      0.01
  285                -30.39      0.09      0.00
  287                -44.46      0.18      0.02
  289                201.85      0.82      0.32
  291                 74.15      0.30      0.05
  293                 28.32      0.18      0.02
  295                  4.54      0.01      0.00
  297                482.79      3.08      4.74
  299                231.96      1.48      1.22
  301                231.96      1.48      1.22
  303                250.83      1.60      1.41
  305                146.69      0.42      0.07
  307                397.52      1.13      0.46
  309                211.02      1.35      1.02
  311                -93.44      0.27      0.03
  313                482.41      1.37      0.66
  315              -2296.41      1.63      0.40
  317                 99.62      0.64      0.26
  319                 48.45      0.14      0.01
  321               7389.41      3.35      1.02
  323                 72.43      0.21      0.02
  325                140.72      0.90      0.48
  329              13147.89      5.97      3.01
  330                  0.00      0.00      0.00
  333                 -0.00      0.00      0.00
  10                   0.00      0.00      0.00  Pump
  335              13147.89      0.00    -93.53  Pump
   
   
  Node Results at 0:05:00 hrs:
  --------------------------------------------------------
                     Demand      Head  Pressure  Chemical
  Node                  gpm        ft       psi      mg/L
  --------------------------------------------------------
  10                   0.00    146.21     -0.34      0.00
  15                 642.94    123.95     39.84      0.00
  20                   0.00    158.08     12.60      0.00
  35                1624.76    146.58     58.10      0.00
  40                   0.00    145.08      5.71      0.00
  50                   0.00    139.93     10.15      0.00
  60                   0.00    209.03     90.57      0.00
  601                  0.00    302.58    131.11      0.00
  61                   0.00    302.58    131.11      0.00
  101                258.33    146.21     45.16      0.00
  103                181.15    146.18     44.71      0.00
  105                184.10    147.50     51.56      0.00
  107                 74.31    147.49     54.38      0.00
  109                314.70    146.19     54.55      0.00
  111                193.04    146.86     59.30      0.00
  113                 27.21    146.91     62.79      0.00
  115                 70.86    147.62     57.90      0.00
  117                160.09    150.64     59.38      0.00
  119                239.54    158.01     67.60      0.00
  120                  0.00    155.63     67.43      0.00
  121                 56.62    161.38     70.79      0.00
  123                  0.00    165.83     67.09      0.00
  125                 62.02    160.74     64.88      0.00
  127                 24.02    158.89     44.58      0.00
  129                  0.00    158.88     46.74      0.00
  131                 58.14    158.86     66.23      0.00
  139                  8.01    153.00     52.86      0.00
  141                 13.40    148.81     62.75      0.00
  143                  8.43    137.25     61.42      0.00
  145                 37.58    150.14     64.62      0.00
  147                 11.63    151.15     57.48      0.00
  149                 36.82    151.57     58.74      0.00
  151                196.49    155.72     52.96      0.00
  153                 60.07    155.82     38.83      0.00
  157                 70.43    155.66     61.77      0.00
  159                 56.20    152.43     63.45      0.00
  161                 21.49    150.23     63.36      0.00
  163                 12.81    149.79     62.74      0.00
  164                  0.00    149.79     62.74      0.00
  166                  3.54    149.79     65.77      0.00
  167                 19.80    148.00     66.29      0.00
  169                  0.00    148.00     66.29      0.00
  171                 53.50    146.96     65.41      0.00
  173                  0.00    146.94     65.40      0.00
  177                 79.11    146.55     60.03      0.00
  179                  0.00    146.52     60.02      0.00
  181                  0.00    146.59     60.05      0.00
  183                  0.00    146.53     58.72      0.00
  184                  0.00    145.49     56.11      0.00
  185                 34.88    145.99     56.32      0.00
  187                  0.00    146.60     58.11      0.00
  189                146.77    146.89     61.91      0.00
  191                111.38    146.82     52.78      0.00
  193                 96.98    146.91     55.86      0.00
  195                  0.00    146.98     56.97      0.00
  197                 23.17    146.82     53.65      0.00
  199                162.28    142.44     62.59      0.00
  201                 60.67    141.82     61.41      0.00
  203               3882.81    141.69     60.53      0.00
  204                  0.00    146.39     54.33      0.00
  205                 88.89    142.38     52.59      0.00
  206                  0.00    141.30     60.79      0.00
  207                 94.37    141.67     57.48      0.00
  208                  0.00    140.89     54.12      0.00
  209                  1.18    140.18     61.61      0.00
  211                 11.79    139.94     57.60      0.00
  213                 18.96    139.86     57.57      0.00
  215                125.38    139.66     57.48      0.00
  217                 32.94    139.64     57.91      0.00
  219                 56.20    139.63     58.77      0.00
  225                 31.01    139.63     57.04      0.00
  229                 87.28    139.62     55.95      0.00
  231                 22.41    139.62     58.33      0.00
  237                 21.23    139.67     54.45      0.00
  239                 60.67    139.64     54.87      0.00
  241                  0.00    139.64     54.87      0.00
  243                  5.90    139.64     54.44      0.00
  247                 95.72    139.64     52.71      0.00
  249                  0.00    139.64     52.71      0.00
  251                 32.86    139.64     47.51      0.00
  253                 74.15    139.60     44.89      0.00
  255                 54.93    139.66     48.82      0.00
  257                  0.00    152.57     58.74      0.00
  259                  0.00    152.14     55.09      0.00
  261                  0.00    150.59     65.25      0.00
  263                  0.00    150.43     65.18      0.00
  265                  0.00    148.57     64.37      0.00
  267                  0.00    146.95     54.57      0.00
  269                  0.00    147.32     63.83      0.00
  271                  0.00    146.69     60.96      0.00
  273                  0.00    142.38     58.23      0.00
  275                  0.00    141.81     57.12      0.00
  River           -13145.78    220.00      0.00      0.00  Reservoir
  Lake                 0.00    167.00      0.00      0.00  Reservoir
  1                  671.52    145.08      5.71      0.00  Tank
  2                 -193.33    139.93     10.15      0.00  Tank
  3                 2371.64    158.08     12.60      0.00  Tank
   
   
  Link Results at 0:05:00 hrs:
  ----------------------------------------------
                       Flow  Velocity  Headloss
  Link                  gpm       fps   /1000ft
  ----------------------------------------------
  20               -2371.64      0.10      0.00
  40                -671.52      0.03      0.00
  50                 193.33      0.01      0.00
  60               13145.78      9.32      8.91
  101                  0.00      0.00      0.00
  103                160.67      0.26      0.02
  105               -419.00      1.19      0.51
  107                 26.51      0.08      0.00
  109                -20.49      0.03      0.00
  111               -335.19      0.95      0.33
  112                483.65      1.37      0.66
  113                -98.30      0.28      0.03
  114                118.90      0.76      0.35
  115                -47.80      0.31      0.07
  116                 -6.61      0.02      0.00
  117                629.62      1.79      1.08
  119               -721.20      2.05      1.38
  120               1147.27      3.25      3.27
  121               1028.00      2.92      2.67
  122                363.63      2.32      2.81
  123               9678.41      4.39      1.68
  125              13145.78      5.97      2.97
  129               3047.12      2.16      0.68
  131               2767.99      1.96      0.57
  133              -2371.64      2.42      1.04
  135                372.33      0.26      0.01
  137                 58.14      0.09      0.00
  145                314.19      2.01      2.14
  147                306.18      1.95      2.04
  149               -651.37      4.16      8.26
  151               -642.94      4.10      8.06
  153                358.59      1.02      0.38
  155                396.17      1.12      0.46
  159               -407.80      1.16      0.48
  161               -444.61      2.84      4.07
  163               -157.04      0.45      0.08
  169                217.11      1.39      1.08
  171                484.06      1.37      0.66
  173               7807.54      3.54      1.13
  175               7737.10      3.51      1.11
  177               7680.91      3.49      1.10
  179               7408.32      3.36      1.03
  180                  3.54      0.01      0.00
  181                  3.54      0.01      0.00
  183               7180.98      3.26      0.97
  185                -19.80      0.13      0.01
  186                315.21      2.01      2.15
  187               6538.23      2.97      0.81
  189               4333.65      1.97      0.38
  191              -2151.08      1.53      0.36
  193              -1624.76      1.15      0.21
  195                667.04      1.89      1.20
  197                587.93      1.67      0.95
  199                -83.59      0.24      0.03
  201               -671.52      1.90      1.21
  202                494.64      3.16      4.96
  203                214.31      1.37      1.05
  204                494.64      1.40      0.69
  205                315.21      0.89      0.30
  207                297.90      0.85      0.27
  209                155.19      0.99      0.58
  211                622.95      1.77      1.05
  213                160.02      0.45      0.09
  215                117.64      0.33      0.05
  217               -240.86      0.68      0.18
  219               -251.10      0.71      0.20
  221                251.10      1.60      1.41
  223                 30.54      0.09      0.00
  225                 53.72      0.15      0.01
  229               4333.65      3.07      1.13
  231               4021.27      2.85      0.98
  233               3882.81      2.75      1.07
  235                150.11      0.43      0.08
  237                456.14      1.29      0.59
  238                539.27      1.53      0.81
  239                177.51      0.50      0.10
  240                539.27      1.53      0.81
  241                539.27      1.53      0.81
  243                538.09      0.86      0.20
  245                327.13      0.52      0.08
  247                245.52      0.39      0.05
  249                120.14      0.19      0.01
  251                 56.20      0.12      0.01
  257                 31.01      0.09      0.00
  261                 62.66      0.40      0.11
  263                 22.41      0.06      0.00
  269                199.17      0.56      0.13
  271                 47.04      0.30      0.06
  273                130.89      0.37      0.06
  275                 29.96      0.08      0.00
  277                  5.90      0.02      0.00
  281                 24.05      0.10      0.01
  283                 40.27      0.11      0.01
  285                -32.43      0.09      0.00
  287                -39.24      0.16      0.02
  289                193.33      0.79      0.29
  291                 74.15      0.30      0.05
  293                 25.02      0.16      0.02
  295                  7.84      0.02      0.00
  297                482.90      3.08      4.74
  299                232.01      1.48      1.22
  301                232.01      1.48      1.22
  303                250.89      1.60      1.41
  305                146.72      0.42      0.07
  307                397.61      1.13      0.46
  309                210.99      1.35      1.02
  311                -93.35      0.26      0.03
  313                482.22      1.37      0.66
  315              -2291.80      1.63      0.40
  317                 99.72      0.64      0.26
  319                 50.39      0.14      0.01
  321               7391.97      3.36      1.02
  323                 77.79      0.22      0.02
  325                140.73      0.90      0.48
  329              13145.78      5.97      3.01
  330                  0.00      0.00      0.00
  333                 -0.00      0.00      0.00
  10                   0.00      0.00      0.00  Pump
  335              13145.78      0.00    -93.55  Pump
   
   
  Node Results at 0:10:00 hrs:
  --------------------------------------------------------
                     Demand      Head  Pressure  Chemical
  Node                  gpm        ft       psi      mg/L
  --------------------------------------------------------
  10                   0.00    146.27     -0.32      0.00
  15                 642.94    124.02     39.87      0.00
  20                   0.00    158.15     12.63      0.00
  35                1624.76    146.64     58.12      0.00
  40                   0.00    145.16      5.75      0.00
  50                   0.00    139.87     10.12      0.00
  60                   0.00    209.03     90.57      0.00
  601                  0.00    302.60    131.12      0.00
  61                   0.00    302.60    131.12      0.00
  101                258.33    146.27     45.18      0.00
  103                181.15    146.24     44.73      0.00
  105                184.10    147.56     51.59      0.00
  107                 74.31    147.55     54.40      0.00
  109                314.70    146.24     54.57      0.00
  111                193.04    146.91     59.32      0.00
  113                 27.21    146.97     62.82      0.00
  115                 70.86    147.68     57.92      0.00
  117                160.09    150.70     59.40      0.00
  119                239.54    158.07     67.63      0.00
  120                  0.00    155.69     67.46      0.00
  121                 56.62    161.44     70.82      0.00
  123                  0.00    165.89     67.11      0.00
  125                 62.02    160.81     64.91      0.00
  127                 24.02    158.97     44.61      0.00
  129                  0.00    158.95     46.78      0.00
  131                 58.14    158.93     66.27      0.00
  139                  8.01    153.06     52.89      0.00
  141                 13.40    148.88     62.78      0.00
  143                  8.43    137.32     61.45      0.00
  145                 37.58    150.21     64.65      0.00
  147                 11.63    151.21     57.50      0.00
  149                 36.82    151.64     58.77      0.00
  151                196.49    155.79     52.99      0.00
  153                 60.07    155.88     38.86      0.00
  157                 70.43    155.72     61.80      0.00
  159                 56.20    152.49     63.47      0.00
  161                 21.49    150.29     63.39      0.00
  163                 12.81    149.85     62.76      0.00
  164                  0.00    149.85     62.76      0.00
  166                  3.54    149.85     65.80      0.00
  167                 19.80    148.05     66.32      0.00
  169                  0.00    148.05     66.32      0.00
  171                 53.50    147.02     65.44      0.00
  173                  0.00    147.00     65.43      0.00
  177                 79.11    146.61     60.06      0.00
  179                  0.00    146.58     60.05      0.00
  181                  0.00    146.64     60.07      0.00
  183                  0.00    146.59     58.75      0.00
  184                  0.00    145.55     56.13      0.00
  185                 34.88    146.04     56.35      0.00
  187                  0.00    146.66     58.13      0.00
  189                146.77    146.95     61.94      0.00
  191                111.38    146.88     52.81      0.00
  193                 96.98    146.97     55.88      0.00
  195                  0.00    147.04     57.00      0.00
  197                 23.17    146.88     53.68      0.00
  199                162.28    142.48     62.60      0.00
  201                 60.67    141.86     61.42      0.00
  203               3882.81    141.73     60.55      0.00
  204                  0.00    146.44     54.35      0.00
  205                 88.89    142.42     52.61      0.00
  206                  0.00    141.32     60.80      0.00
  207                 94.37    141.70     57.50      0.00
  208                  0.00    140.90     54.12      0.00
  209                  1.18    140.16     61.60      0.00
  211                 11.79    139.92     57.59      0.00
  213                 18.96    139.84     57.56      0.00
  215                125.38    139.64     57.47      0.00
  217                 32.94    139.62     57.90      0.00
  219                 56.20    139.61     58.76      0.00
  225                 31.01    139.61     57.03      0.00
  229                 87.28    139.59     55.93      0.00
  231                 22.41    139.58     58.32      0.00
  237                 21.23    139.64     54.44      0.00
  239                 60.67    139.60     54.86      0.00
  241                  0.00    139.60     54.86      0.00
  243                  5.90    139.60     54.42      0.00
  247                 95.72    139.60     52.69      0.00
  249                  0.00    139.60     52.69      0.00
  251                 32.86    139.60     47.49      0.00
  253                 74.15    139.56     44.87      0.00
  255                 54.93    139.62     48.80      0.00
  257                  0.00    152.63     58.77      0.00
  259                  0.00    152.20     55.12      0.00
  261                  0.00    150.65     65.28      0.00
  263                  0.00    150.49     65.21      0.00
  265                  0.00    148.62     64.40      0.00
  267                  0.00    147.01     54.60      0.00
  269                  0.00    147.37     63.86      0.00
  271                  0.00    146.75     60.99      0.00
  273                  0.00    142.42     58.25      0.00
  275                  0.00    141.85     57.13      0.00
  River           -13143.66    220.00      0.00      0.00  Reservoir
  Lake                 0.00    167.00      0.00      0.00  Reservoir
  1                  666.10    145.16      5.75      0.00  Tank
  2                 -185.03    139.87     10.12      0.00  Tank
  3                 2366.65    158.15     12.63      0.00  Tank
   
   
  Link Results at 0:10:00 hrs:
  ----------------------------------------------
                       Flow  Velocity  Headloss
  Link                  gpm       fps   /1000ft
  ----------------------------------------------
  20               -2366.65      0.10      0.00
  40                -666.10      0.03      0.00
  50                 185.03      0.01      0.00
  60               13143.66      9.32      8.91
  101                  0.00      0.00      0.00
  103                160.75      0.26      0.02
  105               -419.08      1.19      0.51
  107                 26.57      0.08      0.00
  109                -20.40      0.03      0.00
  111               -335.10      0.95      0.33
  112                483.84      1.37      0.66
  113                -98.18      0.28      0.03
  114                118.96      0.76      0.35
  115                -47.74      0.30      0.07
  116                 -6.43      0.02      0.00
  117                629.76      1.79      1.08
  119               -721.40      2.05      1.38
  120               1147.52      3.26      3.27
  121               1028.24      2.92      2.67
  122                363.72      2.32      2.81
  123               9681.05      4.39      1.68
  125              13143.66      5.97      2.97
  129               3042.27      2.16      0.68
  131               2763.09      1.96      0.57
  133              -2366.65      2.42      1.04
  135                372.42      0.26      0.01
  137                 58.14      0.09      0.00
  145                314.28      2.01      2.14
  147                306.27      1.95      2.04
  149               -651.37      4.16      8.26
  151               -642.94      4.10      8.06
  153                358.50      1.02      0.38
  155                396.08      1.12      0.46
  159               -407.70      1.16      0.48
  161               -444.52      2.84      4.07
  163               -157.09      0.45      0.08
  169                217.17      1.39      1.08
  171                483.92      1.37      0.66
  173               7810.07      3.54      1.13
  175               7739.64      3.51      1.11
  177               7683.44      3.49      1.10
  179               7410.83      3.36      1.03
  180                  3.54      0.01      0.00
  181                  3.54      0.01      0.00
  183               7183.51      3.26      0.97
  185                -19.80      0.13      0.01
  186                315.66      2.01      2.16
  187               6540.94      2.97      0.81
  189               4340.85      1.97      0.38
  191              -2146.59      1.52      0.36
  193              -1624.76      1.15      0.21
  195                662.57      1.88      1.18
  197                583.46      1.66      0.93
  199                -82.64      0.23      0.02
  201               -666.10      1.89      1.19
  202                495.74      3.16      4.98
  203                214.96      1.37      1.06
  204                495.74      1.41      0.69
  205                315.66      0.90      0.30
  207                297.60      0.84      0.27
  209                155.37      0.99      0.58
  211                622.77      1.77      1.05
  213                160.29      0.45      0.09
  215                117.71      0.33      0.05
  217               -240.97      0.68      0.18
  219               -251.13      0.71      0.20
  221                251.13      1.60      1.41
  223                 30.71      0.09      0.00
  225                 53.88      0.15      0.01
  229               4340.85      3.08      1.13
  231               4026.46      2.86      0.98
  233               3882.81      2.75      1.07
  235                152.12      0.43      0.08
  237                459.16      1.30      0.60
  238                547.58      1.55      0.83
  239                182.79      0.52      0.11
  240                547.58      1.55      0.83
  241                547.58      1.55      0.83
  243                546.39      0.87      0.20
  245                328.87      0.52      0.08
  247                245.52      0.39      0.05
  249                120.14      0.19      0.01
  251                 56.20      0.12      0.01
  257                 31.01      0.09      0.00
  261                 64.39      0.41      0.11
  263                 22.41      0.06      0.00
  269                205.73      0.58      0.14
  271                 45.31      0.29      0.06
  273                139.20      0.39      0.07
  275                 33.06      0.09      0.00
  277                  5.90      0.02      0.00
  281                 27.16      0.11      0.01
  283                 45.46      0.13      0.01
  285                -34.59      0.10      0.01
  287                -33.96      0.14      0.01
  289                185.03      0.76      0.27
  291                 74.15      0.30      0.05
  293                 21.99      0.14      0.02
  295                 10.87      0.03      0.00
  297                483.01      3.08      4.75
  299                232.06      1.48      1.22
  301                232.06      1.48      1.22
  303                250.95      1.60      1.41
  305                146.75      0.42      0.07
  307                397.69      1.13      0.46
  309                210.97      1.35      1.02
  311                -93.26      0.26      0.03
  313                482.03      1.37      0.66
  315              -2287.33      1.62      0.40
  317                 99.81      0.64      0.26
  319                 52.31      0.15      0.01
  321               7394.48      3.36      1.02
  323                 82.98      0.24      0.03
  325                140.74      0.90      0.48
  329              13143.66      5.97      3.00
  330                  0.00      0.00      0.00
  333                 -0.00      0.00      0.00
  10                   0.00      0.00      0.00  Pump
  335              13143.66      0.00    -93.57  Pump
   
   
  Node Results at 0:15:00 hrs:
  --------------------------------------------------------
                     Demand      Head  Pressure  Chemical
  Node                  gpm        ft       psi      mg/L
  --------------------------------------------------------
  10                   0.00    146.33     -0.29      0.00
  15                 642.94    124.08     39.90      0.00
  20                   0.00    158.23     12.66      0.00
  35                1624.76    146.69     58.15      0.00
  40                   0.00    145.24      5.78      0.00
  50                   0.00    139.80     10.10      0.00
  60                   0.00    209.04     90.58      0.00
  601                  0.00    302.62    131.13      0.00
  61                   0.00    302.62    131.13      0.00
  101                258.33    146.33     45.20      0.00
  103                181.15    146.30     44.76      0.00
  105                184.10    147.61     51.61      0.00
  107                 74.31    147.61     54.43      0.00
  109                314.70    146.30     54.60      0.00
  111                193.04    146.97     59.35      0.00
  113                 27.21    147.03     62.84      0.00
  115                 70.86    147.74     57.95      0.00
  117                160.09    150.76     59.43      0.00
  119                239.54    158.14     67.65      0.00
  120                  0.00    155.75     67.49      0.00
  121                 56.62    161.50     70.85      0.00
  123                  0.00    165.95     67.14      0.00
  125                 62.02    160.87     64.94      0.00
  127                 24.02    159.04     44.65      0.00
  129                  0.00    159.02     46.81      0.00
  131                 58.14    159.00     66.30      0.00
  139                  8.01    153.13     52.92      0.00
  141                 13.40    148.95     62.80      0.00
  143                  8.43    137.38     61.48      0.00
  145                 37.58    150.28     64.68      0.00
  147                 11.63    151.28     57.53      0.00
  149                 36.82    151.70     58.80      0.00
  151                196.49    155.85     53.01      0.00
  153                 60.07    155.95     38.89      0.00
  157                 70.43    155.78     61.82      0.00
  159                 56.20    152.55     63.50      0.00
  161                 21.49    150.35     63.41      0.00
  163                 12.81    149.91     62.79      0.00
  164                  0.00    149.91     62.79      0.00
  166                  3.54    149.91     65.82      0.00
  167                 19.80    148.11     66.34      0.00
  169                  0.00    148.11     66.34      0.00
  171                 53.50    147.07     65.46      0.00
  173                  0.00    147.05     65.45      0.00
  177                 79.11    146.67     60.08      0.00
  179                  0.00    146.64     60.07      0.00
  181                  0.00    146.70     60.10      0.00
  183                  0.00    146.64     58.77      0.00
  184                  0.00    145.60     56.16      0.00
  185                 34.88    146.10     56.37      0.00
  187                  0.00    146.71     58.15      0.00
  189                146.77    147.00     61.96      0.00
  191                111.38    146.93     52.83      0.00
  193                 96.98    147.03     55.91      0.00
  195                  0.00    147.10     57.02      0.00
  197                 23.17    146.94     53.70      0.00
  199                162.28    142.52     62.62      0.00
  201                 60.67    141.90     61.44      0.00
  203               3882.81    141.77     60.56      0.00
  204                  0.00    146.50     54.38      0.00
  205                 88.89    142.46     52.63      0.00
  206                  0.00    141.34     60.81      0.00
  207                 94.37    141.73     57.51      0.00
  208                  0.00    140.91     54.12      0.00
  209                  1.18    140.15     61.60      0.00
  211                 11.79    139.90     57.59      0.00
  213                 18.96    139.82     57.55      0.00
  215                125.38    139.62     57.47      0.00
  217                 32.94    139.60     57.89      0.00
  219                 56.20    139.59     58.75      0.00
  225                 31.01    139.60     57.02      0.00
  229                 87.28    139.56     55.92      0.00
  231                 22.41    139.55     58.30      0.00
  237                 21.23    139.60     54.42      0.00
  239                 60.67    139.56     54.84      0.00
  241                  0.00    139.56     54.84      0.00
  243                  5.90    139.56     54.41      0.00
  247                 95.72    139.56     52.67      0.00
  249                  0.00    139.56     52.67      0.00
  251                 32.86    139.56     47.47      0.00
  253                 74.15    139.52     44.85      0.00
  255                 54.93    139.57     48.78      0.00
  257                  0.00    152.69     58.79      0.00
  259                  0.00    152.26     55.14      0.00
  261                  0.00    150.71     65.30      0.00
  263                  0.00    150.55     65.23      0.00
  265                  0.00    148.68     64.42      0.00
  267                  0.00    147.06     54.62      0.00
  269                  0.00    147.43     63.88      0.00
  271                  0.00    146.80     61.01      0.00
  273                  0.00    142.46     58.26      0.00
  275                  0.00    141.89     57.15      0.00
  River           -13141.55    220.00      0.00      0.00  Reservoir
  Lake                 0.00    167.00      0.00      0.00  Reservoir
  1                  660.81    145.24      5.78      0.00  Tank
  2                 -176.92    139.80     10.10      0.00  Tank
  3                 2361.72    158.23     12.66      0.00  Tank
   
   
  Link Results at 0:15:00 hrs:
  ----------------------------------------------
                       Flow  Velocity  Headloss
  Link                  gpm       fps   /1000ft
  ----------------------------------------------
  20               -2361.72      0.10      0.00
  40                -660.81      0.03      0.00
  50                 176.92      0.01      0.00
  60               13141.55      9.32      8.91
  101                  0.00      0.00      0.00
  103                160.84      0.26      0.02
  105               -419.17      1.19      0.51
  107                 26.62      0.08      0.00
  109                -20.31      0.03      0.00
  111               -335.02      0.95      0.33
  112                484.03      1.37      0.66
  113                -98.07      0.28      0.03
  114                119.02      0.76      0.35
  115                -47.69      0.30      0.07
  116                 -6.26      0.02      0.00
  117                629.89      1.79      1.08
  119               -721.60      2.05      1.39
  120               1147.77      3.26      3.27
  121               1028.46      2.92      2.67
  122                363.81      2.32      2.81
  123               9683.64      4.40      1.68
  125              13141.55      5.96      2.96
  129               3037.48      2.15      0.68
  131               2758.25      1.96      0.57
  133              -2361.72      2.41      1.03
  135                372.51      0.26      0.01
  137                 58.14      0.09      0.00
  145                314.37      2.01      2.14
  147                306.36      1.96      2.04
  149               -651.37      4.16      8.26
  151               -642.94      4.10      8.06
  153                358.41      1.02      0.38
  155                395.99      1.12      0.46
  159               -407.61      1.16      0.48
  161               -444.43      2.84      4.07
  163               -157.15      0.45      0.08
  169                217.22      1.39      1.08
  171                483.77      1.37      0.66
  173               7812.56      3.55      1.13
  175               7742.13      3.51      1.11
  177               7685.93      3.49      1.10
  179               7413.29      3.36      1.03
  180                  3.54      0.01      0.00
  181                  3.54      0.01      0.00
  183               7186.00      3.26      0.97
  185                -19.80      0.13      0.01
  186                316.12      2.02      2.16
  187               6543.60      2.97      0.81
  189               4347.88      1.97      0.38
  191              -2142.22      1.52      0.36
  193              -1624.76      1.15      0.21
  195                658.21      1.87      1.17
  197                579.10      1.64      0.92
  199                -81.71      0.23      0.02
  201               -660.81      1.87      1.18
  202                496.82      3.17      5.00
  203                215.59      1.38      1.07
  204                496.82      1.41      0.69
  205                316.12      0.90      0.30
  207                297.30      0.84      0.27
  209                155.55      0.99      0.58
  211                622.60      1.77      1.05
  213                160.56      0.46      0.09
  215                117.78      0.33      0.05
  217               -241.08      0.68      0.18
  219               -251.15      0.71      0.20
  221                251.15      1.60      1.41
  223                 30.87      0.09      0.00
  225                 54.04      0.15      0.01
  229               4347.88      3.08      1.13
  231               4031.50      2.86      0.99
  233               3882.81      2.75      1.07
  235                154.10      0.44      0.08
  237                462.13      1.31      0.61
  238                555.68      1.58      0.85
  239                187.92      0.53      0.11
  240                555.68      1.58      0.85
  241                555.68      1.58      0.85
  243                554.50      0.88      0.21
  245                330.58      0.53      0.08
  247                245.52      0.39      0.05
  249                120.14      0.19      0.01
  251                 56.20      0.12      0.01
  257                 31.01      0.09      0.00
  261                 66.10      0.42      0.12
  263                 22.41      0.06      0.00
  269                212.13      0.60      0.14
  271                 43.60      0.28      0.06
  273                147.30      0.42      0.07
  275                 36.10      0.10      0.01
  277                  5.90      0.02      0.00
  281                 30.20      0.12      0.01
  283                 50.53      0.14      0.01
  285                -36.80      0.10      0.01
  287                -28.72      0.12      0.01
  289                176.92      0.72      0.25
  291                 74.15      0.30      0.05
  293                 19.12      0.12      0.01
  295                 13.73      0.04      0.00
  297                483.12      3.08      4.75
  299                232.11      1.48      1.22
  301                232.11      1.48      1.22
  303                251.00      1.60      1.41
  305                146.78      0.42      0.07
  307                397.78      1.13      0.46
  309                210.94      1.35      1.02
  311                -93.16      0.26      0.03
  313                481.84      1.37      0.66
  315              -2282.97      1.62      0.40
  317                 99.90      0.64      0.26
  319                 54.21      0.15      0.01
  321               7396.94      3.36      1.02
  323                 88.02      0.25      0.03
  325                140.75      0.90      0.48
  329              13141.55      5.96      3.00
  330                  0.00      0.00      0.00
  333                 -0.00      0.00      0.00
  10                   0.00      0.00      0.00  Pump
  335              13141.55      0.00    -93.59  Pump
   
   
  Node Results at 0:20:00 hrs:
  --------------------------------------------------------
                     Demand      Head  Pressure  Chemical
  Node                  gpm        ft       psi      mg/L
  --------------------------------------------------------
  10                   0.00    146.38     -0.27      0.00
  15                 642.94    124.15     39.93      0.00
  20                   0.00    158.30     12.70      0.00
  35                1624.76    146.75     58.17      0.00
  40                   0.00    145.32      5.81      0.00
  50                   0.00    139.74     10.07      0.00
  60                   0.00    209.04     90.58      0.00
  601                  0.00    302.64    131.14      0.00
  61                   0.00    302.64    131.14      0.00
  101                258.33    146.38     45.23      0.00
  103                181.15    146.36     44.78      0.00
  105                184.10    147.67     51.64      0.00
  107                 74.31    147.67     54.45      0.00
  109                314.70    146.36     54.62      0.00
  111                193.04    147.03     59.37      0.00
  113                 27.21    147.08     62.87      0.00
  115                 70.86    147.79     57.97      0.00
  117                160.09    150.82     59.46      0.00
  119                239.54    158.20     67.68      0.00
  120                  0.00    155.81     67.51      0.00
  121                 56.62    161.57     70.87      0.00
  123                  0.00    166.01     67.17      0.00
  125                 62.02    160.94     64.97      0.00
  127                 24.02    159.11     44.68      0.00
  129                  0.00    159.10     46.84      0.00
  131                 58.14    159.08     66.33      0.00
  139                  8.01    153.20     52.95      0.00
  141                 13.40    149.01     62.83      0.00
  143                  8.43    137.45     61.51      0.00
  145                 37.58    150.34     64.71      0.00
  147                 11.63    151.34     57.56      0.00
  149                 36.82    151.77     58.83      0.00
  151                196.49    155.91     53.04      0.00
  153                 60.07    156.01     38.92      0.00
  157                 70.43    155.84     61.85      0.00
  159                 56.20    152.60     63.52      0.00
  161                 21.49    150.41     63.44      0.00
  163                 12.81    149.97     62.81      0.00
  164                  0.00    149.97     62.81      0.00
  166                  3.54    149.97     65.85      0.00
  167                 19.80    148.16     66.37      0.00
  169                  0.00    148.17     66.37      0.00
  171                 53.50    147.13     65.48      0.00
  173                  0.00    147.11     65.48      0.00
  177                 79.11    146.72     60.11      0.00
  179                  0.00    146.70     60.10      0.00
  181                  0.00    146.76     60.12      0.00
  183                  0.00    146.70     58.80      0.00
  184                  0.00    145.65     56.18      0.00
  185                 34.88    146.15     56.40      0.00
  187                  0.00    146.77     58.18      0.00
  189                146.77    147.06     61.99      0.00
  191                111.38    146.99     52.86      0.00
  193                 96.98    147.08     55.93      0.00
  195                  0.00    147.16     57.05      0.00
  197                 23.17    146.99     53.73      0.00
  199                162.28    142.56     62.64      0.00
  201                 60.67    141.94     61.46      0.00
  203               3882.81    141.81     60.58      0.00
  204                  0.00    146.55     54.40      0.00
  205                 88.89    142.50     52.64      0.00
  206                  0.00    141.37     60.82      0.00
  207                 94.37    141.76     57.53      0.00
  208                  0.00    140.92     54.13      0.00
  209                  1.18    140.14     61.59      0.00
  211                 11.79    139.88     57.58      0.00
  213                 18.96    139.80     57.54      0.00
  215                125.38    139.60     57.46      0.00
  217                 32.94    139.58     57.88      0.00
  219                 56.20    139.57     58.74      0.00
  225                 31.01    139.58     57.01      0.00
  229                 87.28    139.53     55.91      0.00
  231                 22.41    139.52     58.29      0.00
  237                 21.23    139.57     54.41      0.00
  239                 60.67    139.53     54.82      0.00
  241                  0.00    139.53     54.82      0.00
  243                  5.90    139.53     54.39      0.00
  247                 95.72    139.52     52.66      0.00
  249                  0.00    139.52     52.66      0.00
  251                 32.86    139.52     47.46      0.00
  253                 74.15    139.48     44.84      0.00
  255                 54.93    139.53     48.76      0.00
  257                  0.00    152.75     58.82      0.00
  259                  0.00    152.32     55.17      0.00
  261                  0.00    150.77     65.33      0.00
  263                  0.00    150.61     65.26      0.00
  265                  0.00    148.74     64.45      0.00
  267                  0.00    147.12     54.65      0.00
  269                  0.00    147.48     63.91      0.00
  271                  0.00    146.86     61.03      0.00
  273                  0.00    142.51     58.28      0.00
  275                  0.00    141.93     57.17      0.00
  River           -13139.44    220.00      0.00      0.00  Reservoir
  Lake                 0.00    167.00      0.00      0.00  Reservoir
  1                  655.67    145.32      5.81      0.00  Tank
  2                 -169.01    139.74     10.07      0.00  Tank
  3                 2356.83    158.30     12.70      0.00  Tank
   
   
  Link Results at 0:20:00 hrs:
  ----------------------------------------------
                       Flow  Velocity  Headloss
  Link                  gpm       fps   /1000ft
  ----------------------------------------------
  20               -2356.83      0.10      0.00
  40                -655.67      0.03      0.00
  50                 169.01      0.01      0.00
  60               13139.44      9.32      8.90
  101                  0.00      0.00      0.00
  103                160.92      0.26      0.02
  105               -419.25      1.19      0.51
  107                 26.67      0.08      0.00
  109                -20.23      0.03      0.00
  111               -334.94      0.95      0.33
  112                484.22      1.37      0.66
  113                -97.96      0.28      0.03
  114                119.08      0.76      0.35
  115                -47.64      0.30      0.07
  116                 -6.09      0.02      0.00
  117                630.03      1.79      1.08
  119               -721.80      2.05      1.39
  120               1148.01      3.26      3.27
  121               1028.69      2.92      2.67
  122                363.90      2.32      2.81
  123               9686.18      4.40      1.68
  125              13139.44      5.96      2.96
  129               3032.74      2.15      0.68
  131               2753.45      1.95      0.57
  133              -2356.83      2.41      1.03
  135                372.60      0.26      0.01
  137                 58.14      0.09      0.00
  145                314.46      2.01      2.14
  147                306.45      1.96      2.04
  149               -651.37      4.16      8.26
  151               -642.94      4.10      8.06
  153                358.32      1.02      0.38
  155                395.90      1.12      0.46
  159               -407.52      1.16      0.48
  161               -444.34      2.84      4.07
  163               -157.20      0.45      0.08
  169                217.27      1.39      1.08
  171                483.63      1.37      0.66
  173               7815.00      3.55      1.13
  175               7744.57      3.52      1.11
  177               7688.37      3.49      1.10
  179               7415.70      3.37      1.03
  180                  3.54      0.01      0.00
  181                  3.54      0.01      0.00
  183               7188.44      3.26      0.97
  185                -19.80      0.13      0.01
  186                316.56      2.02      2.17
  187               6546.20      2.97      0.82
  189               4354.74      1.98      0.38
  191              -2137.96      1.52      0.35
  193              -1624.76      1.15      0.21
  195                653.97      1.86      1.15
  197                574.86      1.63      0.91
  199                -80.81      0.23      0.02
  201               -655.67      1.86      1.16
  202                497.87      3.18      5.02
  203                216.20      1.38      1.07
  204                497.87      1.41      0.70
  205                316.56      0.90      0.30
  207                297.01      0.84      0.27
  209                155.73      0.99      0.58
  211                622.43      1.77      1.05
  213                160.83      0.46      0.09
  215                117.85      0.33      0.05
  217               -241.19      0.68      0.18
  219               -251.18      0.71      0.20
  221                251.18      1.60      1.41
  223                 31.03      0.09      0.00
  225                 54.20      0.15      0.01
  229               4354.74      3.09      1.14
  231               4036.40      2.86      0.99
  233               3882.81      2.75      1.07
  235                156.07      0.44      0.08
  237                465.07      1.32      0.61
  238                563.60      1.60      0.88
  239                192.90      0.55      0.12
  240                563.60      1.60      0.88
  241                563.60      1.60      0.88
  243                562.42      0.90      0.21
  245                332.27      0.53      0.08
  247                245.52      0.39      0.05
  249                120.14      0.19      0.01
  251                 56.20      0.12      0.01
  257                 31.01      0.09      0.00
  261                 67.79      0.43      0.13
  263                 22.41      0.06      0.00
  269                218.35      0.62      0.15
  271                 41.90      0.27      0.05
  273                155.22      0.44      0.08
  275                 39.06      0.11      0.01
  277                  5.90      0.02      0.00
  281                 33.16      0.14      0.01
  283                 55.48      0.16      0.01
  285                -39.07      0.11      0.01
  287                -23.48      0.10      0.01
  289                169.01      0.69      0.23
  291                 74.15      0.30      0.05
  293                 16.45      0.10      0.01
  295                 16.41      0.05      0.00
  297                483.22      3.08      4.75
  299                232.16      1.48      1.22
  301                232.16      1.48      1.22
  303                251.06      1.60      1.41
  305                146.81      0.42      0.07
  307                397.86      1.13      0.46
  309                210.92      1.35      1.02
  311                -93.07      0.26      0.03
  313                481.66      1.37      0.66
  315              -2278.73      1.62      0.40
  317                 99.98      0.64      0.26
  319                 56.08      0.16      0.01
  321               7399.36      3.36      1.02
  323                 92.92      0.26      0.03
  325                140.77      0.90      0.48
  329              13139.44      5.96      3.00
  330                  0.00      0.00      0.00
  333                 -0.00      0.00      0.00
  10                   0.00      0.00      0.00  Pump
  335              13139.44      0.00    -93.61  Pump
   
   
  Node Results at 0:25:00 hrs:
  --------------------------------------------------------
                     Demand      Head  Pressure  Chemical
  Node                  gpm        ft       psi      mg/L
  --------------------------------------------------------
  10                   0.00    146.44     -0.24      0.00
  15                 642.94    124.22     39.96      0.00
  20                   0.00    158.37     12.73      0.00
  35                1624.76    146.81     58.20      0.00
  40                   0.00    145.39      5.85      0.00
  50                   0.00    139.68     10.05      0.00
  60                   0.00    209.04     90.58      0.00
  601                  0.00    302.67    131.15      0.00
  61                   0.00    302.67    131.15      0.00
  101                258.33    146.44     45.25      0.00
  103                181.15    146.41     44.81      0.00
  105                184.10    147.73     51.66      0.00
  107                 74.31    147.73     54.48      0.00
  109                314.70    146.42     54.65      0.00
  111                193.04    147.08     59.40      0.00
  113                 27.21    147.14     62.89      0.00
  115                 70.86    147.85     58.00      0.00
  117                160.09    150.87     59.48      0.00
  119                239.54    158.26     67.71      0.00
  120                  0.00    155.87     67.54      0.00
  121                 56.62    161.63     70.90      0.00
  123                  0.00    166.08     67.19      0.00
  125                 62.02    161.01     65.00      0.00
  127                 24.02    159.18     44.71      0.00
  129                  0.00    159.17     46.87      0.00
  131                 58.14    159.15     66.36      0.00
  139                  8.01    153.27     52.98      0.00
  141                 13.40    149.08     62.86      0.00
  143                  8.43    137.52     61.54      0.00
  145                 37.58    150.41     64.74      0.00
  147                 11.63    151.41     57.59      0.00
  149                 36.82    151.83     58.86      0.00
  151                196.49    155.98     53.07      0.00
  153                 60.07    156.07     38.94      0.00
  157                 70.43    155.90     61.88      0.00
  159                 56.20    152.66     63.55      0.00
  161                 21.49    150.46     63.46      0.00
  163                 12.81    150.02     62.84      0.00
  164                  0.00    150.02     62.84      0.00
  166                  3.54    150.02     65.87      0.00
  167                 19.80    148.22     66.39      0.00
  169                  0.00    148.22     66.39      0.00
  171                 53.50    147.19     65.51      0.00
  173                  0.00    147.17     65.50      0.00
  177                 79.11    146.78     60.13      0.00
  179                  0.00    146.75     60.12      0.00
  181                  0.00    146.81     60.15      0.00
  183                  0.00    146.76     58.82      0.00
  184                  0.00    145.71     56.20      0.00
  185                 34.88    146.21     56.42      0.00
  187                  0.00    146.83     58.20      0.00
  189                146.77    147.12     62.01      0.00
  191                111.38    147.05     52.88      0.00
  193                 96.98    147.14     55.96      0.00
  195                  0.00    147.21     57.07      0.00
  197                 23.17    147.05     53.75      0.00
  199                162.28    142.61     62.66      0.00
  201                 60.67    141.98     61.48      0.00
  203               3882.81    141.85     60.60      0.00
  204                  0.00    146.61     54.43      0.00
  205                 88.89    142.54     52.66      0.00
  206                  0.00    141.39     60.83      0.00
  207                 94.37    141.79     57.54      0.00
  208                  0.00    140.93     54.13      0.00
[...]
  219                 75.62    137.13     57.68      0.00
  225                 41.72    137.14     55.96      0.00
  229                117.45    137.33     54.96      0.11
  231                 30.16    137.32     57.34      0.00
  237                 28.57    137.50     53.51      0.00
  239                 81.64    137.50     53.94      0.00
  241                  0.00    137.50     53.94      0.00
  243                  7.94    137.50     53.51      0.00
  247                128.80    137.50     51.78      0.00
  249                  0.00    137.50     51.78      0.00
  251                 44.21    137.51     46.59      0.00
  253                 99.77    137.65     44.04      0.00
  255                 73.91    137.74     47.98      0.00
  257                  0.00    150.15     57.69      0.00
  259                  0.00    149.66     54.01      0.00
  261                  0.00    147.88     64.08      0.01
  263                  0.00    147.68     63.99     19.84
  265                  0.00    147.18     63.77    153.25
  267                  0.00    145.27     53.85    300.00
  269                  0.00    145.88     63.21    299.16
  271                  0.00    145.48     60.44    300.00
  273                  0.00    140.42     57.38    300.00
  275                  0.00    139.82     56.25    299.15
  River           -13232.66    220.00      0.00      0.00  Reservoir
  Lake                 0.00    167.00      0.00      0.00  Reservoir
  1                 -684.76    146.93      6.51      0.00  Tank
  2                 -409.27    138.83      9.68      0.00  Tank
  3                  447.78    159.55     13.24      0.00  Tank
   
   
  Link Results at 23:55:00 hrs:
  ----------------------------------------------
                       Flow  Velocity  Headloss
  Link                  gpm       fps   /1000ft
  ----------------------------------------------
  20                -447.78      0.02      0.00
  40                 684.76      0.03      0.00
  50                 409.27      0.02      0.00
  60               13232.66      9.38      9.02
  101                  0.00      0.00      0.00
  103                119.44      0.19      0.01
  105               -467.05      1.32      0.62
  107                -22.52      0.06      0.00
  109               -124.31      0.20      0.01
  111               -547.77      1.55      0.83
  112                426.45      1.21      0.52
  113               -233.38      0.66      0.17
  114                 77.31      0.49      0.16
  115               -122.51      0.78      0.37
  116               -192.68      0.55      0.12
  117                692.26      1.96      1.28
  119               -721.62      2.05      1.39
  120               1250.43      3.55      3.83
  121               1108.12      3.14      3.07
  122                378.85      2.42      3.03
  123               9742.17      4.42      1.70
  125              11312.54      5.13      2.25
  129               1115.33      0.79      0.11
  131                817.38      0.58      0.06
  133               -447.78      0.46      0.05
  135                337.28      0.24      0.01
  137                 78.23      0.12      0.01
  145                259.05      1.65      1.50
  147                248.27      1.58      1.38
  149               -379.76      2.42      3.04
  151               -368.41      2.35      2.87
  153                149.51      0.42      0.08
  155                200.08      0.57      0.13
  159               -215.72      0.61      0.15
  161               -265.26      1.69      1.56
  163               -133.67      0.38      0.06
  169                214.50      1.37      1.06
  171                395.99      1.12      0.46
  173               7773.44      3.53      1.12
  175               7678.66      3.49      1.10
  177               7603.04      3.45      1.08
  179               7296.57      3.31      1.00
  180                  4.76      0.01      0.00
  181                  4.76      0.01      0.00
  183               7043.54      3.20      0.93
  185                -26.64      0.17      0.02
  186                244.42      1.56      1.34
  187               6360.65      2.89      0.77
  189               4639.79      2.11      0.43
  191              -1648.87      1.17      0.22
  193              -1983.38      1.41      0.31
  195               -224.15      0.64      0.16
  197               -330.60      0.94      0.33
  199                354.15      1.00      0.37
  201                684.76      1.94      1.26
  202                512.26      3.27      5.29
  203                314.78      2.01      2.15
  204                512.26      1.45      0.73
  205                244.42      0.69      0.19
  207                -39.38      0.11      0.01
  209                250.86      1.60      1.41
  211                656.24      1.86      1.16
  213                 -6.44      0.02      0.00
  215               -136.91      0.39      0.06
  217               -322.32      0.91      0.31
  219               -277.56      0.79      0.24
  221                277.56      1.77      1.70
  223               -178.88      0.51      0.10
  225               -147.70      0.42      0.07
  229               4639.79      3.29      1.28
  231               4225.92      3.00      1.08
  233               4028.95      2.86      1.14
  235                195.52      0.55      0.12
  237                485.46      1.38      0.66
  238                576.52      1.64      0.91
  239                218.04      0.62      0.15
  240                576.52      1.64      0.91
  241                576.52      1.64      0.91
  243                574.92      0.92      0.22
  245                412.81      0.66      0.12
  247                330.37      0.53      0.08
  249                161.66      0.26      0.02
  251                 75.62      0.16      0.01
  257                 41.72      0.12      0.01
  261                 56.93      0.36      0.09
  263                 30.16      0.09      0.00
  269                146.24      0.41      0.07
  271                 90.67      0.58      0.21
  273                 27.00      0.08      0.00
  275                -15.59      0.04      0.00
  277                  7.94      0.02      0.00
  281                -23.53      0.10      0.01
  283                -39.05      0.11      0.01
  285                 -6.35      0.02      0.00
  287               -145.97      0.60      0.17
  289                409.27      1.67      1.18
  291                 99.77      0.41      0.09
  293                 89.61      0.57      0.21
  295                -45.40      0.13      0.01
  297                521.17      3.33      5.46
  299                250.69      1.60      1.41
  301                250.69      1.60      1.41
  303                270.47      1.73      1.62
  305                171.09      0.49      0.10
  307                441.56      1.25      0.56
  309                231.04      1.47      1.21
  311               -367.95      1.04      0.40
  313                545.88      1.55      0.83
  315              -1759.23      1.25      0.25
  317                102.71      0.66      0.27
  319                 92.81      0.26      0.03
  321               7274.58      3.30      0.99
  323                115.33      0.33      0.05
  325                110.36      0.70      0.31
  329              13232.66      6.01      3.04
  330                  0.00      0.00      0.00
  333                 -0.00      0.00      0.00
  10                   0.00      0.00      0.00  Pump
  335              13232.66      0.00    -92.78  Pump
   
   
  Node Results at 24:00:00 hrs:
  --------------------------------------------------------
                     Demand      Head  Pressure  Chemical
  Node                  gpm        ft       psi      mg/L
  --------------------------------------------------------
  10                   0.00    147.47      0.21      0.00
  15                 642.94    125.32     40.43      0.00
  20                   0.00    159.56     13.24    300.00
  35                1624.76    147.85     58.65    265.02
  40                   0.00    146.85      6.48      0.00
  50                   0.00    138.69      9.62      0.00
  60                   0.00    209.10     90.60      0.00
  601                  0.00    303.03    131.30      0.00
  61                   0.00    303.03    131.30      0.00
  101                258.33    147.47     45.70    299.95
  103                181.15    147.44     45.26    146.27
  105                184.10    148.76     52.11    250.88
  107                 74.31    148.76     54.92    300.00
  109                314.70    147.45     55.09    295.84
  111                193.04    148.11     59.84    207.94
  113                 27.21    148.17     63.34    299.94
  115                 70.86    148.88     58.45      0.00
  117                160.09    151.92     59.93      0.00
  119                239.54    159.32     68.17      0.00
  120                  0.00    156.92     68.00      0.00
  121                 56.62    162.70     71.37      0.00
  123                  0.00    167.12     67.65      0.00
  125                 62.02    162.09     65.47      0.00
  127                 24.02    160.33     45.21    300.00
  129                  0.00    160.32     47.37      0.00
  131                 58.14    160.30     66.86      0.00
  139                  8.01    154.39     53.47      0.00
  141                 13.40    150.18     63.34      0.00
  143                  8.43    138.62     62.01      0.00
  145                 37.58    151.50     65.21      0.00
  147                 11.63    152.50     58.06    225.30
  149                 36.82    152.92     59.33    224.58
  151                196.49    157.05     53.53    141.08
  153                 60.07    157.15     39.41    300.00
  157                 70.43    156.95     62.33      0.00
  159                 56.20    153.70     64.00      0.00
  161                 21.49    151.49     63.91      0.00
  163                 12.81    151.05     63.28      0.00
  164                  0.00    151.05     63.28      0.00
  166                  3.54    151.05     66.32      0.00
  167                 19.80    149.24     66.83    278.13
  169                  0.00    149.24     66.83    153.25
  171                 53.50    148.20     65.95    285.53
  173                  0.00    148.17     65.94    299.47
  177                 79.11    147.83     60.59      0.00
  179                  0.00    147.81     60.58      0.00
  181                  0.00    147.85     60.60    266.10
  183                  0.00    147.81     59.28      0.00
  184                  0.00    146.67     56.62    130.83
  185                 34.88    147.21     56.85    131.13
  187                  0.00    147.85     58.65    300.00
  189                146.77    148.15     62.46    299.52
  191                111.38    148.07     53.33    293.93
  193                 96.98    148.17     56.40    297.95
  195                  0.00    148.24     57.52    277.53
  197                 23.17    148.08     54.20    299.90
  199                162.28    143.39     63.00    300.00
  201                 60.67    142.75     61.81    300.00
  203               3882.81    142.62     60.93    300.00
  204                  0.00    147.62     54.86    300.00
  205                 88.89    143.29     52.99    215.44
  206                  0.00    141.79     61.00    222.44
  207                 94.37    142.38     57.79    228.22
  208                  0.00    141.12     54.21    220.98
  209                  1.18    139.95     61.51    170.95
  211                 11.79    139.56     57.44    159.67
  213                 18.96    139.47     57.40    226.87
  215                125.38    139.27     57.31      0.00
  217                 32.94    139.25     57.74      0.00
  219                 56.20    139.24     58.60      0.00
  225                 31.01    139.24     56.87      0.00
  229                 87.28    138.90     55.64      1.31
  231                 22.41    138.90     58.02      0.00
  237                 21.23    138.90     54.12      0.00
  239                 60.67    138.77     54.50      0.00
  241                  0.00    138.77     54.50      0.00
  243                  5.90    138.77     54.06      0.00
  247                 95.72    138.74     52.32      0.00
  249                  0.00    138.74     52.32      0.00
  251                 32.86    138.72     47.11      0.00
  253                 74.15    138.63     44.47      0.00
  255                 54.93    138.68     48.39      0.00
  257                  0.00    153.85     59.30      0.00
  259                  0.00    153.42     55.65      0.00
  261                  0.00    151.87     65.80      0.00
  263                  0.00    151.71     65.73      0.01
  265                  0.00    149.81     64.91     26.04
  267                  0.00    148.21     55.12    299.74
  269                  0.00    148.57     64.37    277.68
  271                  0.00    147.95     61.51    300.00
  273                  0.00    143.31     58.63    300.00
  275                  0.00    142.72     57.51    299.40
  River           -13101.94    220.00      0.00      0.00  Reservoir
  Lake                 0.00    167.00      0.00      0.00  Reservoir
  1                  538.83    146.85      6.48      0.00  Tank
  2                  -30.41    138.69      9.62      0.00  Tank
  3                 2297.59    159.56     13.24      0.00  Tank
   
   
  Link Results at 24:00:00 hrs:
  ----------------------------------------------
                       Flow  Velocity  Headloss
  Link                  gpm       fps   /1000ft
  ----------------------------------------------
  20               -2297.59      0.10      0.00
  40                -538.83      0.02      0.00
  50                  30.41      0.00      0.00
  60               13101.94      9.29      8.86
  101                  0.00      0.00      0.00
  103                161.49      0.26      0.02
  105               -419.82      1.19      0.51
  107                 27.02      0.08      0.00
  109                -19.67      0.03      0.00
  111               -334.37      0.95      0.33
  112                485.50      1.38      0.66
  113                -97.51      0.28      0.03
  114                119.47      0.76      0.36
  115                -47.29      0.30      0.06
  116                 -5.26      0.01      0.00
  117                630.94      1.79      1.08
  119               -723.12      2.05      1.39
  120               1149.61      3.26      3.28
  121               1030.21      2.92      2.68
  122                364.54      2.33      2.82
  123               9705.78      4.41      1.69
  125              13101.94      5.95      2.95
  129               2975.00      2.11      0.65
  131               2695.22      1.91      0.54
  133              -2297.59      2.35      0.98
  135                373.62      0.26      0.01
  137                 58.14      0.09      0.00
  145                315.48      2.01      2.16
  147                307.47      1.96      2.06
  149               -651.37      4.16      8.26
  151               -642.94      4.10      8.06
  153                357.30      1.01      0.38
  155                394.88      1.12      0.45
  159               -406.51      1.15      0.48
  161               -443.32      2.83      4.05
  163               -157.69      0.45      0.08
  169                217.77      1.39      1.09
  171                482.12      1.37      0.66
  173               7834.52      3.56      1.14
  175               7764.08      3.52      1.12
  177               7707.89      3.50      1.10
  179               7435.30      3.37      1.03
  180                  3.54      0.01      0.00
  181                  3.54      0.01      0.00
  183               7208.80      3.27      0.97
  185                -19.80      0.13      0.01
  186                323.37      2.06      2.26
  187               6571.15      2.98      0.82
  189               4474.43      2.03      0.40
  191              -2043.23      1.45      0.33
  193              -1624.76      1.15      0.21
  195                558.61      1.58      0.86
  197                479.50      1.36      0.65
  199                -59.32      0.17      0.01
  201               -538.83      1.53      0.81
  202                516.78      3.30      5.38
  203                228.30      1.46      1.18
  204                516.78      1.47      0.75
  205                323.37      0.92      0.31
  207                287.62      0.82      0.25
  209                159.25      1.02      0.61
  211                617.85      1.75      1.04
  213                164.11      0.47      0.09
  215                115.95      0.33      0.05
  217               -243.06      0.69      0.18
  219               -251.10      0.71      0.20
  221                251.10      1.60      1.41
  223                 32.44      0.09      0.00
  225                 55.61      0.16      0.01
  229               4474.43      3.17      1.20
  231               4118.87      2.92      1.03
  233               3882.81      2.75      1.07
  235                193.29      0.55      0.12
  237                519.69      1.47      0.75
  238                702.19      1.99      1.32
  239                276.87      0.79      0.23
  240                702.19      1.99      1.32
  241                702.19      1.99      1.32
  243                701.01      1.12      0.32
  245                364.41      0.58      0.10
  247                245.52      0.39      0.05
  249                120.14      0.19      0.01
  251                 56.20      0.12      0.01
  257                 31.01      0.09      0.00
  261                 99.93      0.64      0.26
  263                 22.41      0.06      0.00
  269                324.81      0.92      0.32
  271                  9.76      0.06      0.00
  273                293.81      0.83      0.26
  275                 90.98      0.26      0.03
  277                  5.90      0.02      0.00
  281                 85.08      0.35      0.06
  283                142.16      0.40      0.07
  285                -77.40      0.22      0.02
  287                 66.76      0.27      0.04
  289                 30.41      0.12      0.01
  291                 74.15      0.30      0.05
  293                -31.91      0.20      0.03
  295                 64.77      0.18      0.02
  297                483.94      3.09      4.76
  299                232.51      1.48      1.23
  301                232.51      1.48      1.23
  303                251.43      1.60      1.42
  305                147.01      0.42      0.07
  307                398.44      1.13      0.46
  309                210.15      1.34      1.02
  311                -94.20      0.27      0.03
  313                477.70      1.36      0.65
  315              -2183.37      1.55      0.37
  317                101.49      0.65      0.26
  319                 91.80      0.26      0.03
  321               7418.95      3.37      1.03
  323                175.39      0.50      0.10
  325                140.15      0.89      0.48
  329              13101.94      5.95      2.99
  330                  0.00      0.00      0.00
  333                 -0.00      0.00      0.00
  10                   0.00      0.00      0.00  Pump
  335              13101.94      0.00    -93.94  Pump
   
  Analysis ended Wed May 06 16:53:45 2020
