  Page 1                                    Wed May 06 16:58:42 2020

  ******************************************************************
  *                           E P A N E T                          *
  *                   Hydraulic and Water Quality                  *
  *                   Analysis for Pipe Networks                   *
  *                         Version 2.00.12                        *
  ******************************************************************
  
  Analysis begun Wed May 06 16:58:42 2020

   
  Hydraulic Status:
  -----------------------------------------------------------------------
     0:00:00: Balanced after 5 trials
     0:00:00: Reservoir River is emptying
     0:00:00: Reservoir Lake is closed
     0:00:00: Tank 1 is filling at 13.10 ft
     0:00:00: Tank 2 is emptying at 23.50 ft
     0:00:00: Tank 3 is filling at 29.00 ft
   
     0:05:00: Balanced after 2 trials
   
     0:10:00: Balanced after 2 trials
   
     0:15:00: Balanced after 2 trials
   
     0:20:00: Balanced after 2 trials
   
     0:25:00: Balanced after 2 trials
   
     0:30:00: Balanced after 2 trials
   
     0:35:00: Balanced after 2 trials
   
     0:40:00: Balanced after 2 trials
   
     0:45:00: Balanced after 2 trials
   
     0:50:00: Balanced after 2 trials
   
     0:55:00: Balanced after 2 trials
   
     1:00:00: Pump 10 changed by timer control
     1:00:00: Balanced after 7 trials
     1:00:00: Reservoir Lake is emptying
     1:00:00: Pump 10 changed from closed to open
   
     1:05:00: Balanced after 2 trials
   
     1:10:00: Balanced after 2 trials
   
     1:15:00: Balanced after 2 trials
   
     1:20:00: Balanced after 2 trials
   
     1:25:00: Balanced after 2 trials
   
     1:30:00: Balanced after 2 trials
   
     1:35:00: Balanced after 2 trials
   
     1:40:00: Balanced after 2 trials
   
     1:45:00: Balanced after 2 trials
   
     1:50:00: Balanced after 2 trials
   
     1:55:00: Balanced after 2 trials
   
     2:00:00: Balanced after 3 trials
     2:00:00: Tank 2 is filling at 21.35 ft
   
     2:05:00: Balanced after 1 trials
   
     2:10:00: Balanced after 1 trials
   
     2:15:00: Balanced after 1 trials
   
     2:20:00: Balanced after 1 trials
   
     2:25:00: Balanced after 1 trials
   
     2:30:00: Balanced after 1 trials
   
     2:35:00: Balanced after 1 trials
   
     2:40:00: Balanced after 1 trials
   
     2:45:00: Balanced after 1 trials
   
     2:50:00: Balanced after 1 trials
   
     2:55:00: Balanced after 1 trials
   
     3:00:00: Balanced after 3 trials
   
     3:05:00: Balanced after 1 trials
   
     3:10:00: Balanced after 1 trials
   
     3:15:00: Balanced after 1 trials
   
     3:20:00: Balanced after 1 trials
   
     3:25:00: Balanced after 1 trials
   
     3:30:00: Balanced after 1 trials
   
     3:35:00: Balanced after 1 trials
   
     3:40:00: Balanced after 1 trials
   
     3:45:00: Balanced after 1 trials
   
     3:50:00: Balanced after 1 trials
   
     3:55:00: Balanced after 1 trials
   
     4:00:00: Balanced after 3 trials
   
     4:05:00: Balanced after 1 trials
   
     4:08:31: Pump 335 changed by Tank 1 control
     4:08:31: Pipe 330 changed by Tank 1 control
     4:08:31: Balanced after 4 trials
     4:08:31: Pipe 330 changed from closed to open
     4:08:31: Pump 335 changed from open to closed
   
     4:10:00: Balanced after 1 trials
   
     4:15:00: Balanced after 2 trials
   
     4:20:00: Balanced after 2 trials
   
     4:25:00: Balanced after 2 trials
   
     4:30:00: Balanced after 2 trials
   
     4:35:00: Balanced after 2 trials
   
     4:40:00: Balanced after 2 trials
   
     4:45:00: Balanced after 2 trials
   
     4:50:00: Balanced after 2 trials
   
     4:55:00: Balanced after 2 trials
   
     5:00:00: Balanced after 4 trials
     5:00:00: Tank 3 is emptying at 34.37 ft
   
     5:05:00: Balanced after 1 trials
   
     5:10:00: Balanced after 1 trials
   
     5:15:00: Balanced after 1 trials
   
     5:20:00: Balanced after 1 trials
   
     5:25:00: Balanced after 1 trials
   
     5:30:00: Balanced after 1 trials
   
     5:35:00: Balanced after 1 trials
   
     5:40:00: Balanced after 1 trials
   
     5:45:00: Balanced after 1 trials
   
     5:50:00: Balanced after 1 trials
   
     5:55:00: Balanced after 1 trials
   
     6:00:00: Balanced after 3 trials
     6:00:00: Tank 1 is emptying at 20.25 ft
     6:00:00: Tank 2 is emptying at 25.42 ft
     6:00:00: Tank 3 is filling at 34.15 ft
   
     6:05:00: Balanced after 1 trials
   
     6:10:00: Balanced after 1 trials
   
     6:15:00: Balanced after 1 trials
   
     6:20:00: Balanced after 1 trials
   
     6:25:00: Balanced after 1 trials
   
     6:30:00: Balanced after 1 trials
   
     6:35:00: Balanced after 1 trials
   
     6:40:00: Balanced after 1 trials
   
     6:45:00: Balanced after 1 trials
   
     6:50:00: Balanced after 1 trials
   
     6:55:00: Balanced after 1 trials
   
     7:00:00: Balanced after 4 trials
     7:00:00: Tank 1 is filling at 20.20 ft
     7:00:00: Tank 2 is filling at 25.26 ft
   
     7:05:00: Balanced after 1 trials
   
     7:10:00: Balanced after 1 trials
   
     7:15:00: Balanced after 1 trials
   
     7:20:00: Balanced after 1 trials
   
     7:25:00: Balanced after 1 trials
   
     7:30:00: Balanced after 1 trials
   
     7:35:00: Balanced after 1 trials
   
     7:40:00: Balanced after 1 trials
   
     7:45:00: Balanced after 1 trials
   
     7:50:00: Balanced after 1 trials
   
     7:55:00: Balanced after 1 trials
   
     8:00:00: Balanced after 2 trials
   
     8:05:00: Balanced after 1 trials
   
     8:10:00: Balanced after 1 trials
   
     8:15:00: Balanced after 1 trials
   
     8:20:00: Balanced after 1 trials
   
     8:25:00: Balanced after 1 trials
   
     8:30:00: Balanced after 1 trials
   
     8:35:00: Balanced after 1 trials
   
     8:40:00: Balanced after 1 trials
   
     8:45:00: Balanced after 1 trials
   
     8:50:00: Balanced after 1 trials
   
     8:55:00: Balanced after 1 trials
   
     9:00:00: Balanced after 3 trials
     9:00:00: Tank 3 is emptying at 35.02 ft
   
     9:05:00: Balanced after 2 trials
   
     9:10:00: Balanced after 2 trials
   
     9:15:00: Balanced after 2 trials
   
     9:20:00: Balanced after 2 trials
   
     9:25:00: Balanced after 2 trials
   
     9:30:00: Balanced after 2 trials
   
     9:35:00: Balanced after 2 trials
   
     9:40:00: Balanced after 2 trials
   
     9:45:00: Balanced after 2 trials
   
     9:50:00: Balanced after 2 trials
   
     9:55:00: Balanced after 2 trials
   
    10:00:00: Balanced after 3 trials
    10:00:00: Tank 1 is emptying at 22.09 ft
   
    10:05:00: Balanced after 1 trials
   
    10:10:00: Balanced after 1 trials
   
    10:15:00: Balanced after 1 trials
   
    10:20:00: Balanced after 1 trials
   
    10:25:00: Balanced after 1 trials
   
    10:30:00: Balanced after 1 trials
   
    10:35:00: Balanced after 1 trials
   
    10:40:00: Balanced after 1 trials
   
    10:45:00: Balanced after 1 trials
   
    10:50:00: Balanced after 1 trials
   
    10:55:00: Balanced after 1 trials
   
    11:00:00: Balanced after 3 trials
    11:00:00: Tank 2 is emptying at 27.38 ft
   
    11:05:00: Balanced after 1 trials
   
    11:10:00: Balanced after 1 trials
   
    11:15:00: Balanced after 1 trials
   
    11:20:00: Balanced after 1 trials
   
    11:25:00: Balanced after 1 trials
   
    11:30:00: Balanced after 1 trials
   
    11:35:00: Balanced after 1 trials
   
    11:40:00: Balanced after 1 trials
   
    11:45:00: Balanced after 1 trials
   
    11:50:00: Balanced after 1 trials
   
    11:55:00: Balanced after 1 trials
   
    12:00:00: Balanced after 4 trials
    12:00:00: Tank 1 is filling at 21.47 ft
    12:00:00: Tank 2 is filling at 26.87 ft
   
    12:05:00: Balanced after 2 trials
   
    12:10:00: Balanced after 2 trials
   
    12:15:00: Balanced after 2 trials
   
    12:20:00: Balanced after 2 trials
   
    12:25:00: Balanced after 2 trials
   
    12:30:00: Balanced after 2 trials
   
    12:35:00: Balanced after 2 trials
   
    12:40:00: Balanced after 2 trials
   
    12:45:00: Balanced after 2 trials
   
    12:50:00: Balanced after 1 trials
   
    12:55:00: Balanced after 1 trials
   
    13:00:00: Balanced after 3 trials
   
    13:05:00: Balanced after 2 trials
   
    13:10:00: Balanced after 2 trials
   
    13:15:00: Balanced after 2 trials
   
    13:20:00: Balanced after 2 trials
   
    13:25:00: Balanced after 2 trials
   
    13:30:00: Balanced after 2 trials
   
    13:35:00: Balanced after 2 trials
   
    13:40:00: Balanced after 2 trials
   
    13:45:00: Balanced after 2 trials
   
    13:50:00: Balanced after 2 trials
   
    13:55:00: Balanced after 2 trials
   
    14:00:00: Balanced after 3 trials
   
    14:05:00: Balanced after 1 trials
   
    14:10:00: Balanced after 1 trials
   
    14:15:00: Balanced after 1 trials
   
    14:20:00: Balanced after 1 trials
   
    14:25:00: Balanced after 1 trials
   
    14:30:00: Balanced after 1 trials
   
    14:35:00: Balanced after 1 trials
   
    14:40:00: Balanced after 1 trials
   
    14:45:00: Balanced after 1 trials
   
    14:50:00: Balanced after 1 trials
   
    14:55:00: Balanced after 1 trials
   
    15:00:00: Pump 10 changed by timer control
    15:00:00: Balanced after 5 trials
    15:00:00: Reservoir Lake is closed
    15:00:00: Tank 1 is emptying at 22.26 ft
    15:00:00: Tank 2 is emptying at 28.40 ft
    15:00:00: Pump 10 changed from open to closed
   
    15:05:00: Balanced after 2 trials
   
    15:10:00: Balanced after 2 trials
   
    15:15:00: Balanced after 2 trials
   
    15:20:00: Balanced after 2 trials
   
    15:25:00: Balanced after 2 trials
   
    15:30:00: Balanced after 2 trials
   
    15:35:00: Balanced after 2 trials
   
    15:40:00: Balanced after 2 trials
   
    15:45:00: Balanced after 2 trials
   
    15:50:00: Balanced after 2 trials
   
    15:55:00: Balanced after 2 trials
   
    16:00:00: Balanced after 3 trials
   
    16:05:00: Balanced after 2 trials
   
    16:10:00: Balanced after 2 trials
   
    16:15:00: Balanced after 2 trials
   
    16:20:00: Balanced after 2 trials
   
    16:25:00: Balanced after 1 trials
   
    16:30:00: Balanced after 1 trials
   
    16:35:00: Balanced after 1 trials
   
    16:40:00: Balanced after 1 trials
   
    16:45:00: Balanced after 1 trials
   
    16:50:00: Balanced after 1 trials
   
    16:55:00: Balanced after 1 trials
   
    17:00:00: Balanced after 3 trials
    17:00:00: Tank 2 is filling at 27.76 ft
   
    17:05:00: Balanced after 2 trials
   
    17:10:00: Balanced after 2 trials
   
    17:15:00: Balanced after 1 trials
   
    17:20:00: Balanced after 1 trials
   
    17:25:00: Balanced after 1 trials
    17:25:00: Tank 2 is emptying at 27.78 ft
   
    17:30:00: Balanced after 1 trials
   
    17:35:00: Balanced after 1 trials
   
    17:40:00: Balanced after 1 trials
   
    17:45:00: Balanced after 1 trials
   
    17:50:00: Balanced after 1 trials
   
    17:55:00: Balanced after 1 trials
   
    18:00:00: Balanced after 4 trials
    18:00:00: Tank 1 is filling at 19.40 ft
    18:00:00: Tank 2 is filling at 27.75 ft
   
    18:05:00: Balanced after 2 trials
   
    18:10:00: Balanced after 2 trials
   
    18:15:00: Balanced after 2 trials
   
    18:20:00: Balanced after 2 trials
   
    18:25:00: Balanced after 2 trials
   
    18:30:00: Balanced after 2 trials
   
    18:35:00: Balanced after 2 trials
   
    18:40:00: Balanced after 2 trials
   
    18:45:00: Balanced after 2 trials
   
    18:50:00: Balanced after 2 trials
   
    18:55:00: Balanced after 2 trials
   
    19:00:00: Balanced after 4 trials
    19:00:00: Tank 1 is emptying at 19.50 ft
    19:00:00: Tank 2 is emptying at 28.54 ft
   
    19:05:00: Balanced after 1 trials
   
    19:10:00: Balanced after 1 trials
   
    19:15:00: Balanced after 1 trials
   
    19:20:00: Balanced after 1 trials
   
    19:25:00: Balanced after 1 trials
   
    19:30:00: Balanced after 1 trials
   
    19:35:00: Balanced after 1 trials
   
    19:40:00: Balanced after 1 trials
   
    19:45:00: Balanced after 1 trials
   
    19:50:00: Balanced after 1 trials
   
    19:55:00: Balanced after 1 trials
   
    20:00:00: Balanced after 3 trials
   
    20:05:00: Balanced after 1 trials
   
    20:10:00: Balanced after 1 trials
   
    20:15:00: Balanced after 1 trials
   
    20:20:00: Balanced after 1 trials
   
    20:25:00: Balanced after 1 trials
   
    20:30:00: Balanced after 1 trials
   
    20:35:00: Balanced after 1 trials
   
    20:40:00: Balanced after 1 trials
   
    20:45:00: Balanced after 1 trials
   
    20:50:00: Balanced after 1 trials
   
    20:55:00: Balanced after 1 trials
   
    21:00:00: Balanced after 2 trials
   
    21:05:00: Balanced after 1 trials
   
    21:10:00: Balanced after 1 trials
   
    21:15:00: Balanced after 1 trials
   
    21:20:00: Balanced after 1 trials
   
    21:25:00: Balanced after 1 trials
   
    21:30:00: Balanced after 1 trials
   
    21:35:00: Balanced after 1 trials
   
    21:40:00: Balanced after 1 trials
   
    21:45:00: Balanced after 1 trials
   
    21:50:00: Balanced after 1 trials
   
    21:55:00: Balanced after 1 trials
   
    22:00:00: Balanced after 3 trials
   
    22:05:00: Balanced after 2 trials
   
    22:10:00: Balanced after 2 trials
   
    22:15:00: Balanced after 2 trials
   
    22:16:00: Pump 335 changed by Tank 1 control
    22:16:00: Pipe 330 changed by Tank 1 control
    22:16:00: Balanced after 5 trials
    22:16:00: Tank 3 is filling at 29.59 ft
    22:16:00: Pipe 330 changed from open to closed
    22:16:00: Pump 335 changed from closed to open
   
    22:20:00: Balanced after 2 trials
   
    22:25:00: Balanced after 2 trials
   
    22:30:00: Balanced after 2 trials
   
    22:35:00: Balanced after 2 trials
   
    22:40:00: Balanced after 2 trials
   
    22:45:00: Balanced after 2 trials
   
    22:50:00: Balanced after 2 trials
   
    22:55:00: Balanced after 2 trials
   
    23:00:00: Balanced after 3 trials
   
    23:05:00: Balanced after 2 trials
   
    23:10:00: Balanced after 2 trials
   
    23:15:00: Balanced after 2 trials
   
    23:20:00: Balanced after 2 trials
   
    23:25:00: Balanced after 2 trials
   
    23:30:00: Balanced after 2 trials
   
    23:35:00: Balanced after 2 trials
   
    23:40:00: Balanced after 2 trials
   
    23:45:00: Balanced after 2 trials
   
    23:50:00: Balanced after 2 trials
   
    23:55:00: Balanced after 2 trials
   
    24:00:00: Balanced after 4 trials
    24:00:00: Tank 1 is filling at 15.61 ft
   
   
  Node Results at 0:00:00 hrs:
  --------------------------------------------------------
                     Demand      Head  Pressure  Chemical
  Node                  gpm        ft       psi      mg/L
  --------------------------------------------------------
  10                   0.00    146.21     -0.34      0.00
  15                 564.00    131.19     42.98      0.00
  20                   0.00    158.00     12.57      0.00
  35                1667.58    146.00     57.85      0.00
  40                   0.00    145.00      5.68      0.00
  50                   0.00    140.00     10.18      0.00
  60                   0.00    209.02     90.57      0.00
  601                  0.00    302.54    131.09      0.00
  61                   0.00    302.54    131.09      0.00
  101                235.54    146.21     45.15      0.00
  103                165.17    146.17     44.71      0.00
  105                167.86    147.46     51.55      0.00
  107                 67.75    147.45     54.36      0.00
  109                286.94    146.17     54.54      0.00
  111                176.01    146.63     59.20      0.00
  113                 24.81    146.64     62.67      0.00
  115                 64.60    147.48     57.84      0.00
  117                145.96    150.57     59.35      0.00
  119                218.40    157.85     67.53      0.00
  120                  0.00    155.50     67.38      0.00
  121                 51.62    161.25     70.74      0.00
  123                  0.00    165.70     67.03      0.00
  125                 56.54    160.64     64.84      0.00
  127                 21.90    158.83     44.55      0.00
  129                  0.00    158.81     46.72      0.00
  131                 53.01    158.80     66.21      0.00
  139                  7.30    154.07     53.33      0.00
  141                 12.21    150.71     63.57      0.00
  143                  7.69    141.63     63.32      0.00
  145                 34.26    151.73     65.31      0.00
  147                 10.60    152.52     58.07      0.00
  149                 33.57    152.85     59.30      0.00
  151                179.16    156.10     53.12      0.00
  153                 54.77    156.19     38.99      0.00
  157                 64.22    155.41     61.66      0.00
  159                 51.24    152.06     63.29      0.00
  161                 19.59    149.78     63.16      0.00
  163                 11.68    149.32     62.53      0.00
  164                  0.00    149.32     62.53      0.00
  166                  3.22    149.32     65.57      0.00
  167                 18.05    147.44     66.05      0.00
  169                  0.00    147.44     66.05      0.00
  171                 48.78    146.34     65.14      0.00
  173                  0.00    146.32     65.13      0.00
  177                 72.13    145.99     59.79      0.00
  179                  0.00    145.97     59.78      0.00
  181                  0.00    146.01     59.80      0.00
  183                  0.00    145.98     58.49      0.00
  184                  0.00    144.81     55.81      0.00
  185                 31.81    145.41     56.07      0.00
  187                  0.00    146.18     57.92      0.00
  189                133.82    146.46     61.73      0.00
  191                101.56    146.52     52.66      0.00
  193                 88.42    146.61     55.73      0.00
  195                  0.00    146.68     56.84      0.00
  197                 21.13    146.54     53.53      0.00
  199                147.96    141.07     61.99      0.00
  201                 55.32    140.32     60.76      0.00
  203               4495.13    140.16     59.86      0.00
  204                  0.00    145.91     54.12      0.00
  205                 81.05    141.04     52.02      0.00
  206                  0.00    140.14     60.29      0.00
  207                 86.04    140.33     56.91      0.00
  208                  0.00    139.91     53.69      0.00
  209                  1.08    139.53     61.32      0.00
  211                 10.75    139.40     57.37      0.00
  213                 17.29    139.34     57.34      0.00
  215                114.32    139.17     57.27      0.00
  217                 30.03    139.16     57.70      0.00
  219                 51.24    139.15     58.56      0.00
  225                 28.27    139.15     56.83      0.00
  229                 79.58    139.25     55.79      0.00
  231                 20.44    139.24     58.17      0.00
  237                 19.36    139.33     54.31      0.00
  239                 55.32    139.33     54.74      0.00
  241                  0.00    139.33     54.74      0.00
  243                  5.38    139.33     54.31      0.00
  247                 87.27    139.33     52.57      0.00
  249                  0.00    139.33     52.57      0.00
  251                 29.96    139.34     47.38      0.00
  253                 67.60    139.41     44.81      0.00
  255                 50.08    139.46     48.73      0.00
  257                  0.00    152.47     58.70      0.00
  259                  0.00    152.05     55.05      0.00
  261                  0.00    150.52     65.22      0.00
  263                  0.00    150.36     65.15      0.00
  265                  0.00    148.04     64.14      0.00
  267                  0.00    146.61     54.43      0.00
  269                  0.00    146.82     63.62      0.00
  271                  0.00    146.10     60.71      0.00
  273                  0.00    141.04     57.65      0.00
  275                  0.00    140.33     56.47      0.00
  River           -13149.88    220.00      0.00      0.00  Reservoir
  Lake                 0.00    167.00      0.00      0.00  Reservoir
  1                  542.13    145.00      5.68      0.00  Tank
  2                 -281.43    140.00     10.18      0.00  Tank
  3                 2382.81    158.00     12.57      0.00  Tank
   
   
  Link Results at 0:00:00 hrs:
  ----------------------------------------------
                       Flow  Velocity  Headloss
  Link                  gpm       fps   /1000ft
  ----------------------------------------------
  20               -2382.81      0.10      0.00
  40                -542.13      0.02      0.00
  50                 281.43      0.01      0.00
  60               13149.88      9.33      8.92
  101                  0.00      0.00      0.00
  103                177.92      0.28      0.03
  105               -413.46      1.17      0.49
  107                 44.59      0.13      0.01
  109                 12.75      0.02      0.00
  111               -274.18      0.78      0.23
  112                511.53      1.45      0.73
  113                -33.34      0.09      0.00
  114                130.56      0.83      0.42
  115                -23.17      0.15      0.02
  116                 72.41      0.21      0.02
  117                625.91      1.78      1.06
  119               -729.86      2.07      1.41
  120               1138.05      3.23      3.22
  121               1021.76      2.90      2.64
  122                363.68      2.32      2.81
  123               9735.28      4.42      1.70
  125              13149.88      5.97      2.97
  129               2999.30      2.13      0.66
  131               2737.30      1.94      0.56
  133              -2382.81      2.43      1.05
  135                332.59      0.24      0.01
  137                 53.01      0.08      0.00
  145                279.58      1.78      1.72
  147                272.28      1.74      1.64
  149               -571.69      3.65      6.48
  151               -564.00      3.60      6.32
  153                311.62      0.88      0.29
  155                345.88      0.98      0.35
  159               -356.48      1.01      0.38
  161               -390.05      2.49      3.19
  163               -150.68      0.43      0.08
  169                205.45      1.31      0.97
  171                418.52      1.19      0.51
  173               7960.31      3.61      1.17
  175               7896.09      3.58      1.15
  177               7844.85      3.56      1.14
  179               7580.54      3.44      1.07
  180                  3.22      0.01      0.00
  181                  3.22      0.01      0.00
  183               7368.50      3.34      1.02
  185                -18.05      0.12      0.01
  186                357.43      2.28      2.72
  187               6759.02      3.07      0.87
  189               4704.34      2.14      0.44
  191              -2005.90      1.42      0.31
  193              -1667.58      1.18      0.22
  195                490.24      1.39      0.68
  197                418.11      1.19      0.50
  199               -124.02      0.35      0.05
  201               -542.13      1.54      0.82
  202                547.69      3.50      5.99
  203                222.07      1.42      1.13
  204                547.69      1.55      0.83
  205                357.43      1.01      0.38
  207                346.08      0.98      0.36
  209                153.05      0.98      0.56
  211                591.42      1.68      0.96
  213                204.38      0.58      0.13
  215                193.47      0.55      0.12
  217               -232.39      0.66      0.17
  219               -244.72      0.69      0.19
  221                244.72      1.56      1.35
  223                 73.55      0.21      0.02
  225                 94.68      0.27      0.03
  229               4704.34      3.34      1.31
  231               4454.22      3.16      1.19
  233               4495.13      3.19      1.40
  235                102.16      0.29      0.04
  237                456.52      1.30      0.59
  238                386.54      1.10      0.44
  239                 16.06      0.05      0.00
  240                386.54      1.10      0.44
  241                386.54      1.10      0.44
  243                385.46      0.62      0.11
  245                279.10      0.45      0.06
  247                223.86      0.36      0.04
  249                109.54      0.17      0.01
  251                 51.24      0.11      0.00
  257                 28.27      0.08      0.00
  261                 37.95      0.24      0.04
  263                 20.44      0.06      0.00
  269                 95.61      0.27      0.03
  271                 62.07      0.40      0.11
  273                 14.19      0.04      0.00
  275                -12.13      0.03      0.00
  277                  5.38      0.02      0.00
  281                -17.51      0.07      0.00
  283                -29.00      0.08      0.00
  285                 -3.28      0.01      0.00
  287               -101.50      0.41      0.09
  289                281.43      1.15      0.59
  291                 67.60      0.28      0.04
  293                 62.24      0.40      0.11
  295                -32.28      0.09      0.00
  297                479.97      3.06      4.69
  299                230.60      1.47      1.21
  301                230.60      1.47      1.21
  303                249.37      1.59      1.40
  305                145.94      0.41      0.07
  307                395.30      1.12      0.45
  309                197.14      1.26      0.90
  311                 -3.68      0.01      0.00
  313                439.49      1.25      0.55
  315              -2157.82      1.53      0.36
  317                112.29      0.72      0.32
  319                -10.12      0.03      0.00
  321               7565.64      3.43      1.07
  323                -96.22      0.27      0.03
  325                151.93      0.97      0.56
  329              13149.88      5.97      3.01
  330                  0.00      0.00      0.00
  333                 -0.00      0.00      0.00
  10                   0.00      0.00      0.00  Pump
  335              13149.88      0.00    -93.51  Pump
   
   
  Node Results at 0:05:00 hrs:
  --------------------------------------------------------
                     Demand      Head  Pressure  Chemical
  Node                  gpm        ft       psi      mg/L
  --------------------------------------------------------
  10                   0.00    146.26     -0.32      0.00
  15                 564.00    131.26     43.01      0.00
  20                   0.00    158.08     12.60      0.00
  35                1667.58    146.04     57.86      0.00
  40                   0.00    145.06      5.70      0.00
  50                   0.00    139.90     10.14      0.00
  60                   0.00    209.03     90.57      0.00
  601                  0.00    302.56    131.10      0.00
  61                   0.00    302.56    131.10      0.00
  101                235.54    146.26     45.17      0.00
  103                165.17    146.22     44.73      0.00
  105                167.86    147.51     51.57      0.00
  107                 67.75    147.50     54.38      0.00
  109                286.94    146.22     54.56      0.00
  111                176.01    146.68     59.22      0.00
  113                 24.81    146.69     62.69      0.00
  115                 64.60    147.53     57.86      0.00
  117                145.96    150.62     59.37      0.00
  119                218.40    157.91     67.55      0.00
  120                  0.00    155.55     67.40      0.00
  121                 51.62    161.31     70.76      0.00
  123                  0.00    165.76     67.06      0.00
  125                 56.54    160.70     64.86      0.00
  127                 21.90    158.90     44.58      0.00
  129                  0.00    158.89     46.75      0.00
  131                 53.01    158.87     66.24      0.00
  139                  7.30    154.14     53.36      0.00
  141                 12.21    150.77     63.60      0.00
  143                  7.69    141.69     63.34      0.00
  145                 34.26    151.80     65.34      0.00
  147                 10.60    152.58     58.10      0.00
  149                 33.57    152.91     59.32      0.00
  151                179.16    156.16     53.15      0.00
  153                 54.77    156.25     39.02      0.00
  157                 64.22    155.47     61.69      0.00
  159                 51.24    152.11     63.31      0.00
  161                 19.59    149.82     63.19      0.00
  163                 11.68    149.36     62.55      0.00
  164                  0.00    149.36     62.55      0.00
  166                  3.22    149.36     65.59      0.00
  167                 18.05    147.48     66.07      0.00
  169                  0.00    147.48     66.07      0.00
  171                 48.78    146.38     65.16      0.00
  173                  0.00    146.36     65.15      0.00
  177                 72.13    146.03     59.81      0.00
  179                  0.00    146.02     59.80      0.00
  181                  0.00    146.05     59.82      0.00
  183                  0.00    146.03     58.51      0.00
  184                  0.00    144.85     55.83      0.00
  185                 31.81    145.45     56.09      0.00
  187                  0.00    146.22     57.94      0.00
  189                133.82    146.51     61.75      0.00
  191                101.56    146.57     52.68      0.00
  193                 88.42    146.66     55.75      0.00
  195                  0.00    146.72     56.86      0.00
  197                 21.13    146.59     53.55      0.00
  199                147.96    141.10     62.00      0.00
  201                 55.32    140.35     60.77      0.00
  203               4495.13    140.18     59.87      0.00
  204                  0.00    145.95     54.14      0.00
  205                 81.05    141.07     52.03      0.00
  206                  0.00    140.14     60.29      0.00
  207                 86.04    140.35     56.91      0.00
  208                  0.00    139.91     53.69      0.00
  209                  1.08    139.51     61.31      0.00
  211                 10.75    139.37     57.36      0.00
  213                 17.29    139.31     57.33      0.00
  215                114.32    139.14     57.26      0.00
  217                 30.03    139.13     57.68      0.00
  219                 51.24    139.12     58.55      0.00
  225                 28.27    139.12     56.81      0.00
  229                 79.58    139.21     55.77      0.00
  231                 20.44    139.21     58.15      0.00
  237                 19.36    139.29     54.29      0.00
  239                 55.32    139.29     54.72      0.00
  241                  0.00    139.29     54.72      0.00
  243                  5.38    139.29     54.29      0.00
  247                 87.27    139.29     52.55      0.00
  249                  0.00    139.29     52.55      0.00
  251                 29.96    139.29     47.36      0.00
  253                 67.60    139.35     44.78      0.00
  255                 50.08    139.40     48.70      0.00
  257                  0.00    152.53     58.72      0.00
  259                  0.00    152.10     55.07      0.00
  261                  0.00    150.57     65.24      0.00
  263                  0.00    150.41     65.17      0.00
  265                  0.00    148.08     64.16      0.00
  267                  0.00    146.66     54.45      0.00
  269                  0.00    146.86     63.64      0.00
  271                  0.00    146.14     60.72      0.00
  273                  0.00    141.07     57.66      0.00
  275                  0.00    140.35     56.48      0.00
  River           -13147.91    220.00      0.00      0.00  Reservoir
  Lake                 0.00    167.00      0.00      0.00  Reservoir
  1                  536.71    145.06      5.70      0.00  Tank
  2                 -270.80    139.90     10.14      0.00  Tank
  3                 2375.64    158.08     12.60      0.00  Tank
   
   
  Link Results at 0:05:00 hrs:
  ----------------------------------------------
                       Flow  Velocity  Headloss
  Link                  gpm       fps   /1000ft
  ----------------------------------------------
  20               -2375.64      0.10      0.00
  40                -536.71      0.02      0.00
  50                 270.80      0.01      0.00
  60               13147.91      9.32      8.91
  101                  0.00      0.00      0.00
  103                178.09      0.28      0.03
  105               -413.62      1.17      0.49
  107                 44.70      0.13      0.01
  109                 12.92      0.02      0.00
  111               -274.02      0.78      0.23
  112                511.90      1.45      0.73
  113                -33.04      0.09      0.00
  114                130.67      0.83      0.42
  115                -23.05      0.15      0.02
  116                 72.82      0.21      0.02
  117                626.18      1.78      1.07
  119               -730.23      2.07      1.42
  120               1138.53      3.23      3.22
  121               1022.19      2.90      2.64
  122                363.84      2.32      2.81
  123               9740.07      4.42      1.70
  125              13147.91      5.97      2.97
  129               2992.37      2.12      0.66
  131               2730.28      1.94      0.56
  133              -2375.64      2.43      1.05
  135                332.75      0.24      0.01
  137                 53.01      0.08      0.00
  145                279.74      1.79      1.73
  147                272.43      1.74      1.64
  149               -571.69      3.65      6.48
  151               -564.00      3.60      6.32
  153                311.47      0.88      0.29
  155                345.73      0.98      0.35
  159               -356.33      1.01      0.37
  161               -389.90      2.49      3.19
  163               -150.78      0.43      0.08
  169                205.55      1.31      0.98
  171                418.28      1.19      0.50
  173               7964.86      3.62      1.17
  175               7900.65      3.59      1.16
  177               7849.41      3.56      1.14
  179               7585.03      3.44      1.07
  180                  3.22      0.01      0.00
  181                  3.22      0.01      0.00
  183               7373.00      3.35      1.02
  185                -18.05      0.12      0.01
  186                358.01      2.29      2.73
  187               6763.63      3.07      0.87
  189               4713.70      2.14      0.44
  191              -2001.14      1.42      0.31
  193              -1667.58      1.18      0.22
  195                485.55      1.38      0.66
  197                413.42      1.17      0.49
  199               -123.29      0.35      0.05
  201               -536.71      1.52      0.80
  202                548.95      3.50      6.02
  203                222.74      1.42      1.13
  204                548.95      1.56      0.83
  205                358.01      1.02      0.38
  207                346.03      0.98      0.36
  209                153.27      0.98      0.57
  211                591.32      1.68      0.96
  213                204.74      0.58      0.13
  215                193.79      0.55      0.12
  217               -232.52      0.66      0.17
  219               -244.79      0.69      0.19
  221                244.79      1.56      1.35
  223                 73.78      0.21      0.02
  225                 94.91      0.27      0.03
  229               4713.70      3.34      1.32
  231               4462.57      3.16      1.19
  233               4495.13      3.19      1.40
  235                103.18      0.29      0.04
  237                458.49      1.30      0.60
  238                397.16      1.13      0.46
  239                 24.72      0.07      0.00
  240                397.16      1.13      0.46
  241                397.16      1.13      0.46
  243                396.08      0.63      0.11
  245                280.74      0.45      0.06
  247                223.86      0.36      0.04
  249                109.54      0.17      0.01
  251                 51.24      0.11      0.00
  257                 28.27      0.08      0.00
  261                 39.59      0.25      0.05
  263                 20.44      0.06      0.00
  269                104.59      0.30      0.04
  271                 60.42      0.39      0.10
  273                 24.81      0.07      0.00
  275                 -8.12      0.02      0.00
  277                  5.38      0.02      0.00
  281                -13.50      0.06      0.00
  283                -22.39      0.06      0.00
  285                 -5.97      0.02      0.00
  287                -94.80      0.39      0.08
  289                270.80      1.11      0.55
  291                 67.60      0.28      0.04
  293                 58.31      0.37      0.09
  295                -28.36      0.08      0.00
  297                480.18      3.06      4.69
  299                230.70      1.47      1.21
  301                230.70      1.47      1.21
  303                249.47      1.59      1.40
  305                146.01      0.41      0.07
  307                395.48      1.12      0.45
  309                197.13      1.26      0.90
  311                 -3.33      0.01      0.00
  313                439.33      1.25      0.55
  315              -2153.13      1.53      0.36
  317                112.60      0.72      0.32
  319                 -9.42      0.03      0.00
  321               7570.12      3.44      1.07
  323                -87.88      0.25      0.03
  325                151.99      0.97      0.56
  329              13147.91      5.97      3.01
  330                  0.00      0.00      0.00
  333                 -0.00      0.00      0.00
  10                   0.00      0.00      0.00  Pump
  335              13147.91      0.00    -93.53  Pump
   
   
  Node Results at 0:10:00 hrs:
  --------------------------------------------------------
                     Demand      Head  Pressure  Chemical
  Node                  gpm        ft       psi      mg/L
  --------------------------------------------------------
  10                   0.00    146.30     -0.30      0.00
  15                 564.00    131.32     43.03      0.00
  20                   0.00    158.15     12.63      0.00
  35                1667.58    146.09     57.88      0.00
  40                   0.00    145.13      5.73      0.00
  50                   0.00    139.81     10.10      0.00
  60                   0.00    209.03     90.57      0.00
  601                  0.00    302.58    131.11      0.00
  61                   0.00    302.58    131.11      0.00
  101                235.54    146.30     45.19      0.00
  103                165.17    146.27     44.75      0.00
  105                167.86    147.56     51.59      0.00
  107                 67.75    147.55     54.40      0.00
  109                286.94    146.27     54.58      0.00
  111                176.01    146.73     59.24      0.00
  113                 24.81    146.74     62.71      0.00
  115                 64.60    147.58     57.88      0.00
  117                145.96    150.67     59.39      0.00
  119                218.40    157.96     67.58      0.00
  120                  0.00    155.61     67.43      0.00
  121                 51.62    161.37     70.79      0.00
  123                  0.00    165.82     67.08      0.00
  125                 56.54    160.76     64.89      0.00
  127                 21.90    158.97     44.62      0.00
  129                  0.00    158.96     46.78      0.00
  131                 53.01    158.94     66.27      0.00
  139                  7.30    154.21     53.38      0.00
  141                 12.21    150.83     63.62      0.00
  143                  7.69    141.75     63.37      0.00
  145                 34.26    151.86     65.37      0.00
  147                 10.60    152.64     58.12      0.00
  149                 33.57    152.97     59.35      0.00
  151                179.16    156.22     53.17      0.00
  153                 54.77    156.31     39.04      0.00
  157                 64.22    155.52     61.71      0.00
  159                 51.24    152.16     63.33      0.00
  161                 19.59    149.87     63.21      0.00
  163                 11.68    149.41     62.57      0.00
  164                  0.00    149.41     62.57      0.00
  166                  3.22    149.41     65.61      0.00
  167                 18.05    147.53     66.09      0.00
  169                  0.00    147.53     66.09      0.00
  171                 48.78    146.43     65.18      0.00
  173                  0.00    146.40     65.17      0.00
  177                 72.13    146.08     59.83      0.00
  179                  0.00    146.06     59.82      0.00
  181                  0.00    146.10     59.84      0.00
  183                  0.00    146.07     58.53      0.00
  184                  0.00    144.89     55.85      0.00
  185                 31.81    145.49     56.11      0.00
  187                  0.00    146.27     57.96      0.00
  189                133.82    146.55     61.77      0.00
  191                101.56    146.61     52.70      0.00
  193                 88.42    146.70     55.77      0.00
  195                  0.00    146.77     56.88      0.00
  197                 21.13    146.64     53.57      0.00
  199                147.96    141.12     62.01      0.00
  201                 55.32    140.37     60.78      0.00
  203               4495.13    140.20     59.88      0.00
  204                  0.00    146.00     54.16      0.00
  205                 81.05    141.09     52.04      0.00
  206                  0.00    140.15     60.30      0.00
  207                 86.04    140.37     56.92      0.00
  208                  0.00    139.91     53.69      0.00
  209                  1.08    139.48     61.30      0.00
  211                 10.75    139.34     57.34      0.00
  213                 17.29    139.28     57.32      0.00
  215                114.32    139.11     57.24      0.00
  217                 30.03    139.10     57.67      0.00
  219                 51.24    139.09     58.53      0.00
  225                 28.27    139.09     56.80      0.00
  229                 79.58    139.17     55.75      0.00
  231                 20.44    139.17     58.13      0.00
  237                 19.36    139.25     54.27      0.00
  239                 55.32    139.24     54.70      0.00
  241                  0.00    139.24     54.70      0.00
  243                  5.38    139.24     54.27      0.00
  247                 87.27    139.24     52.54      0.00
  249                  0.00    139.24     52.54      0.00
  251                 29.96    139.25     47.34      0.00
  253                 67.60    139.29     44.76      0.00
  255                 50.08    139.34     48.68      0.00
  257                  0.00    152.58     58.75      0.00
  259                  0.00    152.16     55.10      0.00
  261                  0.00    150.62     65.26      0.00
  263                  0.00    150.46     65.20      0.00
  265                  0.00    148.13     64.18      0.00
  267                  0.00    146.70     54.47      0.00
  269                  0.00    146.91     63.66      0.00
  271                  0.00    146.19     60.74      0.00
  273                  0.00    141.09     57.67      0.00
  275                  0.00    140.38     56.49      0.00
  River           -13145.94    220.00      0.00      0.00  Reservoir
  Lake                 0.00    167.00      0.00      0.00  Reservoir
  1                  531.50    145.13      5.73      0.00  Tank
  2                 -260.48    139.81     10.10      0.00  Tank
  3                 2368.56    158.15     12.63      0.00  Tank
   
   
  Link Results at 0:10:00 hrs:
  ----------------------------------------------
                       Flow  Velocity  Headloss
  Link                  gpm       fps   /1000ft
  ----------------------------------------------
  20               -2368.56      0.10      0.00
  40                -531.50      0.02      0.00
  50                 260.48      0.01      0.00
  60               13145.94      9.32      8.91
  101                  0.00      0.00      0.00
  103                178.25      0.28      0.03
  105               -413.78      1.17      0.49
  107                 44.81      0.13      0.01
  109                 13.08      0.02      0.00
  111               -273.86      0.78      0.23
  112                512.27      1.45      0.73
  113                -32.74      0.09      0.00
  114                130.77      0.83      0.42
  115                -22.94      0.15      0.02
  116                 73.22      0.21      0.02
  117                626.45      1.78      1.07
  119               -730.59      2.07      1.42
  120               1139.00      3.23      3.23
  121               1022.63      2.90      2.64
  122                364.01      2.32      2.81
  123               9744.77      4.42      1.70
  125              13145.94      5.97      2.97
  129               2985.53      2.12      0.66
  131               2723.35      1.93      0.55
  133              -2368.56      2.42      1.04
  135                332.90      0.24      0.01
  137                 53.01      0.08      0.00
  145                279.89      1.79      1.73
  147                272.58      1.74      1.65
  149               -571.69      3.65      6.48
  151               -564.00      3.60      6.32
  153                311.32      0.88      0.29
  155                345.58      0.98      0.35
  159               -356.18      1.01      0.37
  161               -389.75      2.49      3.19
  163               -150.87      0.43      0.08
  169                205.64      1.31      0.98
  171                418.04      1.19      0.50
  173               7969.34      3.62      1.17
  175               7905.12      3.59      1.16
  177               7853.88      3.56      1.14
  179               7589.43      3.44      1.07
  180                  3.22      0.01      0.00
  181                  3.22      0.01      0.00
  183               7377.42      3.35      1.02
  185                -18.05      0.12      0.01
  186                358.59      2.29      2.73
  187               6768.14      3.07      0.87
  189               4722.79      2.14      0.45
  191              -1996.57      1.42      0.31
  193              -1667.58      1.18      0.22
  195                481.04      1.36      0.65
  197                408.91      1.16      0.48
  199               -122.59      0.35      0.05
  201               -531.50      1.51      0.79
  202                550.18      3.51      6.04
  203                223.40      1.43      1.14
  204                550.18      1.56      0.84
  205                358.59      1.02      0.38
  207                345.99      0.98      0.36
  209                153.48      0.98      0.57
  211                591.22      1.68      0.96
  213                205.11      0.58      0.13
  215                194.12      0.55      0.12
  217               -232.64      0.66      0.17
  219               -244.86      0.69      0.19
  221                244.86      1.56      1.35
  223                 74.02      0.21      0.02
  225                 95.15      0.27      0.03
  229               4722.79      3.35      1.32
  231               4470.55      3.17      1.19
  233               4495.13      3.19      1.40
  235                104.28      0.30      0.04
  237                460.54      1.31      0.60
  238                407.48      1.16      0.48
  239                 32.98      0.09      0.00
  240                407.48      1.16      0.48
  241                407.48      1.16      0.48
  243                406.40      0.65      0.12
  245                282.41      0.45      0.06
  247                223.86      0.36      0.04
  249                109.54      0.17      0.01
  251                 51.24      0.11      0.00
  257                 28.27      0.08      0.00
  261                 41.26      0.26      0.05
  263                 20.44      0.06      0.00
  269                113.25      0.32      0.04
  271                 58.75      0.38      0.10
  273                 35.13      0.10      0.01
  275                 -4.23      0.01      0.00
  277                  5.38      0.02      0.00
  281                 -9.62      0.04      0.00
  283                -15.95      0.05      0.00
  285                 -8.59      0.02      0.00
  287                -88.30      0.36      0.07
  289                260.48      1.06      0.51
  291                 67.60      0.28      0.04
  293                 54.49      0.35      0.08
  295                -24.54      0.07      0.00
  297                480.38      3.07      4.70
  299                230.80      1.47      1.21
  301                230.80      1.47      1.21
  303                249.58      1.59      1.40
  305                146.07      0.41      0.07
  307                395.65      1.12      0.46
  309                197.11      1.26      0.90
  311                 -2.99      0.01      0.00
  313                439.17      1.25      0.55
  315              -2148.62      1.52      0.36
  317                112.88      0.72      0.32
  319                 -8.59      0.02      0.00
  321               7574.53      3.44      1.07
  323                -79.89      0.23      0.02
  325                152.05      0.97      0.56
  329              13145.94      5.97      3.01
  330                  0.00      0.00      0.00
  333                 -0.00      0.00      0.00
  10                   0.00      0.00      0.00  Pump
  335              13145.94      0.00    -93.55  Pump
   
   
  Node Results at 0:15:00 hrs:
  --------------------------------------------------------
                     Demand      Head  Pressure  Chemical
  Node                  gpm        ft       psi      mg/L
  --------------------------------------------------------
  10                   0.00    146.35     -0.28      0.00
  15                 564.00    131.38     43.06      0.00
  20                   0.00    158.23     12.66      0.00
  35                1667.58    146.14     57.90      0.00
  40                   0.00    145.19      5.76      0.00
  50                   0.00    139.72     10.06      0.00
  60                   0.00    209.03     90.57      0.00
  601                  0.00    302.60    131.12      0.00
  61                   0.00    302.60    131.12      0.00
  101                235.54    146.35     45.22      0.00
  103                165.17    146.32     44.77      0.00
  105                167.86    147.61     51.61      0.00
  107                 67.75    147.60     54.42      0.00
  109                286.94    146.32     54.60      0.00
  111                176.01    146.78     59.26      0.00
  113                 24.81    146.78     62.73      0.00
  115                 64.60    147.63     57.90      0.00
  117                145.96    150.72     59.41      0.00
  119                218.40    158.02     67.60      0.00
  120                  0.00    155.66     67.45      0.00
  121                 51.62    161.43     70.81      0.00
  123                  0.00    165.88     67.11      0.00
  125                 56.54    160.82     64.92      0.00
  127                 21.90    159.04     44.65      0.00
  129                  0.00    159.03     46.81      0.00
  131                 53.01    159.01     66.30      0.00
  139                  7.30    154.27     53.41      0.00
  141                 12.21    150.90     63.65      0.00
  143                  7.69    141.82     63.40      0.00
  145                 34.26    151.92     65.39      0.00
  147                 10.60    152.70     58.15      0.00
  149                 33.57    153.03     59.37      0.00
  151                179.16    156.28     53.20      0.00
  153                 54.77    156.37     39.07      0.00
  157                 64.22    155.58     61.74      0.00
  159                 51.24    152.21     63.35      0.00
  161                 19.59    149.92     63.23      0.00
  163                 11.68    149.46     62.59      0.00
  164                  0.00    149.46     62.59      0.00
  166                  3.22    149.46     65.63      0.00
  167                 18.05    147.57     66.11      0.00
  169                  0.00    147.57     66.11      0.00
  171                 48.78    146.47     65.20      0.00
  173                  0.00    146.45     65.19      0.00
  177                 72.13    146.12     59.85      0.00
  179                  0.00    146.11     59.84      0.00
  181                  0.00    146.14     59.86      0.00
  183                  0.00    146.12     58.55      0.00
  184                  0.00    144.93     55.87      0.00
  185                 31.81    145.54     56.13      0.00
  187                  0.00    146.31     57.98      0.00
  189                133.82    146.60     61.79      0.00
  191                101.56    146.66     52.72      0.00
  193                 88.42    146.75     55.79      0.00
  195                  0.00    146.82     56.90      0.00
  197                 21.13    146.68     53.59      0.00
  199                147.96    141.15     62.03      0.00
  201                 55.32    140.39     60.79      0.00
  203               4495.13    140.22     59.89      0.00
  204                  0.00    146.04     54.18      0.00
  205                 81.05    141.12     52.05      0.00
  206                  0.00    140.16     60.30      0.00
  207                 86.04    140.39     56.93      0.00
  208                  0.00    139.91     53.69      0.00
  209                  1.08    139.46     61.30      0.00
  211                 10.75    139.31     57.33      0.00
  213                 17.29    139.25     57.30      0.00
  215                114.32    139.08     57.23      0.00
  217                 30.03    139.07     57.66      0.00
  219                 51.24    139.06     58.52      0.00
  225                 28.27    139.06     56.79      0.00
  229                 79.58    139.13     55.74      0.00
  231                 20.44    139.13     58.12      0.00
  237                 19.36    139.21     54.25      0.00
  239                 55.32    139.20     54.68      0.00
  241                  0.00    139.20     54.68      0.00
  243                  5.38    139.20     54.25      0.00
  247                 87.27    139.20     52.52      0.00
  249                  0.00    139.20     52.52      0.00
  251                 29.96    139.20     47.32      0.00
  253                 67.60    139.24     44.73      0.00
  255                 50.08    139.28     48.65      0.00
  257                  0.00    152.63     58.77      0.00
  259                  0.00    152.21     55.12      0.00
  261                  0.00    150.67     65.29      0.00
  263                  0.00    150.51     65.22      0.00
  265                  0.00    148.17     64.20      0.00
  267                  0.00    146.75     54.49      0.00
  269                  0.00    146.96     63.68      0.00
  271                  0.00    146.23     60.76      0.00
  273                  0.00    141.12     57.68      0.00
  275                  0.00    140.40     56.50      0.00
  River           -13143.97    220.00      0.00      0.00  Reservoir
  Lake                 0.00    167.00      0.00      0.00  Reservoir
  1                  526.48    145.19      5.76      0.00  Tank
  2                 -250.44    139.72     10.06      0.00  Tank
  3                 2361.56    158.23     12.66      0.00  Tank
   
   
  Link Results at 0:15:00 hrs:
  ----------------------------------------------
                       Flow  Velocity  Headloss
  Link                  gpm       fps   /1000ft
  ----------------------------------------------
  20               -2361.56      0.10      0.00
  40                -526.48      0.02      0.00
  50                 250.44      0.01      0.00
  60               13143.97      9.32      8.91
  101                  0.00      0.00      0.00
  103                178.41      0.28      0.03
  105               -413.94      1.17      0.49
  107                 44.92      0.13      0.01
  109                 13.24      0.02      0.00
  111               -273.70      0.78      0.23
  112                512.63      1.45      0.74
  113                -32.45      0.09      0.00
  114                130.88      0.84      0.42
  115                -22.83      0.15      0.02
  116                 73.62      0.21      0.02
  117                626.72      1.78      1.07
  119               -730.95      2.07      1.42
  120               1139.46      3.23      3.23
  121               1023.05      2.90      2.64
  122                364.17      2.32      2.81
  123               9749.40      4.43      1.71
  125              13143.97      5.97      2.97
  129               2978.78      2.11      0.65
  131               2716.50      1.93      0.55
  133              -2361.56      2.41      1.03
  135                333.04      0.24      0.01
  137                 53.01      0.08      0.00
  145                280.03      1.79      1.73
  147                272.73      1.74      1.65
  149               -571.69      3.65      6.48
  151               -564.00      3.60      6.32
  153                311.17      0.88      0.29
  155                345.43      0.98      0.35
  159               -356.04      1.01      0.37
  161               -389.60      2.49      3.19
  163               -150.96      0.43      0.08
  169                205.73      1.31      0.98
  171                417.80      1.19      0.50
  173               7973.74      3.62      1.18
  175               7909.52      3.59      1.16
  177               7858.28      3.57      1.14
  179               7593.77      3.45      1.07
  180                  3.22      0.01      0.00
  181                  3.22      0.01      0.00
  183               7381.77      3.35      1.02
  185                -18.05      0.12      0.01
  186                359.15      2.29      2.74
  187               6772.58      3.07      0.87
  189               4731.63      2.15      0.45
  191              -1992.17      1.41      0.31
  193              -1667.58      1.18      0.22
  195                476.70      1.35      0.64
  197                404.57      1.15      0.47
  199               -121.92      0.35      0.05
  201               -526.48      1.49      0.77
  202                551.38      3.52      6.06
  203                224.04      1.43      1.14
  204                551.38      1.56      0.84
  205                359.15      1.02      0.38
  207                345.95      0.98      0.35
  209                153.69      0.98      0.57
  211                591.13      1.68      0.96
  213                205.46      0.58      0.14
  215                194.45      0.55      0.12
  217               -232.77      0.66      0.17
  219               -244.92      0.69      0.19
  221                244.92      1.56      1.35
  223                 74.25      0.21      0.02
  225                 95.38      0.27      0.03
  229               4731.63      3.36      1.33
  231               4478.22      3.18      1.20
  233               4495.13      3.19      1.40
  235                105.45      0.30      0.04
  237                462.66      1.31      0.61
  238                417.52      1.18      0.50
  239                 40.91      0.12      0.01
  240                417.52      1.18      0.50
  241                417.52      1.18      0.50
  243                416.44      0.66      0.12
  245                284.10      0.45      0.06
  247                223.86      0.36      0.04
  249                109.54      0.17      0.01
  251                 51.24      0.11      0.00
  257                 28.27      0.08      0.00
  261                 42.96      0.27      0.05
  263                 20.44      0.06      0.00
  269                121.59      0.34      0.05
  271                 57.06      0.36      0.09
  273                 45.17      0.13      0.01
  275                 -0.43      0.00      0.00
  277                  5.38      0.02      0.00
  281                 -5.81      0.02      0.00
  283                 -9.72      0.03      0.00
  285                -11.10      0.03      0.00
  287                -81.98      0.33      0.06
  289                250.44      1.02      0.47
  291                 67.60      0.28      0.04
  293                 50.77      0.32      0.07
  295                -20.81      0.06      0.00
  297                480.58      3.07      4.70
  299                230.90      1.47      1.21
  301                230.90      1.47      1.21
  303                249.68      1.59      1.40
  305                146.14      0.41      0.07
  307                395.82      1.12      0.46
  309                197.09      1.26      0.90
  311                 -2.65      0.01      0.00
  313                439.02      1.25      0.55
  315              -2144.28      1.52      0.36
  317                113.13      0.72      0.32
  319                 -7.68      0.02      0.00
  321               7578.86      3.44      1.07
  323                -72.22      0.20      0.02
  325                152.11      0.97      0.56
  329              13143.97      5.97      3.00
  330                  0.00      0.00      0.00
  333                 -0.00      0.00      0.00
  10                   0.00      0.00      0.00  Pump
  335              13143.97      0.00    -93.57  Pump
   
   
  Node Results at 0:20:00 hrs:
  --------------------------------------------------------
                     Demand      Head  Pressure  Chemical
  Node                  gpm        ft       psi      mg/L
  --------------------------------------------------------
  10                   0.00    146.40     -0.26      0.00
  15                 564.00    131.44     43.09      0.00
  20                   0.00    158.30     12.70      0.00
  35                1667.58    146.18     57.92      0.00
  40                   0.00    145.25      5.79      0.00
  50                   0.00    139.64     10.03      0.00
  60                   0.00    209.04     90.57      0.00
  601                  0.00    302.62    131.12      0.00
  61                   0.00    302.62    131.12      0.00
  101                235.54    146.40     45.24      0.00
  103                165.17    146.36     44.79      0.00
  105                167.86    147.66     51.63      0.00
  107                 67.75    147.64     54.44      0.00
  109                286.94    146.36     54.62      0.00
  111                176.01    146.82     59.29      0.00
  113                 24.81    146.83     62.75      0.00
  115                 64.60    147.68     57.92      0.00
  117                145.96    150.77     59.44      0.00
  119                218.40    158.08     67.63      0.00
  120                  0.00    155.72     67.47      0.00
  121                 51.62    161.49     70.84      0.00
  123                  0.00    165.94     67.13      0.00
  125                 56.54    160.89     64.95      0.00
  127                 21.90    159.11     44.68      0.00
  129                  0.00    159.10     46.84      0.00
  131                 53.01    159.08     66.33      0.00
  139                  7.30    154.34     53.44      0.00
  141                 12.21    150.96     63.68      0.00
  143                  7.69    141.88     63.43      0.00
  145                 34.26    151.98     65.42      0.00
  147                 10.60    152.76     58.17      0.00
  149                 33.57    153.09     59.40      0.00
  151                179.16    156.34     53.23      0.00
  153                 54.77    156.43     39.10      0.00
  157                 64.22    155.63     61.76      0.00
  159                 51.24    152.26     63.37      0.00
  161                 19.59    149.97     63.25      0.00
  163                 11.68    149.51     62.61      0.00
  164                  0.00    149.51     62.61      0.00
  166                  3.22    149.51     65.65      0.00
  167                 18.05    147.62     66.13      0.00
  169                  0.00    147.62     66.13      0.00
  171                 48.78    146.52     65.22      0.00
  173                  0.00    146.49     65.21      0.00
  177                 72.13    146.17     59.87      0.00
  179                  0.00    146.16     59.86      0.00
  181                  0.00    146.19     59.88      0.00
  183                  0.00    146.17     58.57      0.00
  184                  0.00    144.97     55.88      0.00
  185                 31.81    145.58     56.15      0.00
  187                  0.00    146.36     58.00      0.00
  189                133.82    146.65     61.81      0.00
  191                101.56    146.71     52.74      0.00
  193                 88.42    146.80     55.81      0.00
  195                  0.00    146.86     56.92      0.00
  197                 21.13    146.73     53.61      0.00
  199                147.96    141.17     62.04      0.00
  201                 55.32    140.42     60.80      0.00
  203               4495.13    140.25     59.90      0.00
  204                  0.00    146.09     54.20      0.00
  205                 81.05    141.14     52.06      0.00
  206                  0.00    140.17     60.30      0.00
  207                 86.04    140.41     56.94      0.00
  208                  0.00    139.90     53.69      0.00
  209                  1.08    139.44     61.29      0.00
  211                 10.75    139.28     57.32      0.00
  213                 17.29    139.22     57.29      0.00
  215                114.32    139.06     57.22      0.00
  217                 30.03    139.04     57.65      0.00
  219                 51.24    139.03     58.51      0.00
  225                 28.27    139.03     56.78      0.00
  229                 79.58    139.10     55.72      0.00
  231                 20.44    139.09     58.10      0.00
  237                 19.36    139.16     54.23      0.00
  239                 55.32    139.16     54.66      0.00
  241                  0.00    139.16     54.66      0.00
  243                  5.38    139.16     54.23      0.00
  247                 87.27    139.16     52.50      0.00
  249                  0.00    139.16     52.50      0.00
  251                 29.96    139.16     47.30      0.00
  253                 67.60    139.18     44.71      0.00
  255                 50.08    139.23     48.63      0.00
  257                  0.00    152.68     58.79      0.00
  259                  0.00    152.26     55.14      0.00
  261                  0.00    150.73     65.31      0.00
  263                  0.00    150.57     65.24      0.00
  265                  0.00    148.22     64.22      0.00
  267                  0.00    146.80     54.51      0.00
  269                  0.00    147.00     63.70      0.00
  271                  0.00    146.28     60.78      0.00
  273                  0.00    141.14     57.69      0.00
  275                  0.00    140.42     56.51      0.00
  River           -13142.00    220.00      0.00      0.00  Reservoir
  Lake                 0.00    167.00      0.00      0.00  Reservoir
  1                  521.66    145.25      5.79      0.00  Tank
  2                 -240.67    139.64     10.03      0.00  Tank
  3                 2354.64    158.30     12.70      0.00  Tank
   
   
  Link Results at 0:20:00 hrs:
  ----------------------------------------------
                       Flow  Velocity  Headloss
  Link                  gpm       fps   /1000ft
  ----------------------------------------------
  20               -2354.64      0.10      0.00
  40                -521.66      0.02      0.00
  50                 240.67      0.01      0.00
  60               13142.00      9.32      8.91
  101                  0.00      0.00      0.00
  103                178.56      0.28      0.03
  105               -414.10      1.17      0.50
  107                 45.03      0.13      0.01
  109                 13.39      0.02      0.00
  111               -273.54      0.78      0.23
  112                512.99      1.46      0.74
  113                -32.16      0.09      0.00
  114                130.98      0.84      0.42
  115                -22.73      0.15      0.02
  116                 74.01      0.21      0.02
  117                626.99      1.78      1.07
  119               -731.30      2.07      1.42
  120               1139.92      3.23      3.23
  121               1023.47      2.90      2.65
  122                364.33      2.33      2.82
  123               9753.95      4.43      1.71
  125              13142.00      5.96      2.96
  129               2972.09      2.11      0.65
  131               2709.73      1.92      0.55
  133              -2354.64      2.40      1.03
  135                333.19      0.24      0.01
  137                 53.01      0.08      0.00
  145                280.18      1.79      1.73
  147                272.87      1.74      1.65
  149               -571.69      3.65      6.48
  151               -564.00      3.60      6.32
  153                311.03      0.88      0.29
  155                345.29      0.98      0.35
  159               -355.89      1.01      0.37
  161               -389.46      2.49      3.19
  163               -151.05      0.43      0.08
  169                205.82      1.31      0.98
  171                417.56      1.18      0.50
  173               7978.07      3.62      1.18
  175               7913.85      3.59      1.16
  177               7862.61      3.57      1.14
  179               7598.03      3.45      1.07
  180                  3.22      0.01      0.00
  181                  3.22      0.01      0.00
  183               7386.04      3.35      1.02
  185                -18.05      0.12      0.01
  186                359.71      2.30      2.75
  187               6776.94      3.08      0.87
  189               4740.23      2.15      0.45
  191              -1987.92      1.41      0.31
  193              -1667.58      1.18      0.22
  195                472.51      1.34      0.63
  197                400.38      1.14      0.47
  199               -121.28      0.34      0.05
  201               -521.66      1.48      0.76
  202                552.55      3.53      6.09
  203                224.65      1.43      1.15
  204                552.55      1.57      0.84
  205                359.71      1.02      0.38
  207                345.93      0.98      0.35
  209                153.90      0.98      0.57
  211                591.05      1.68      0.96
  213                205.81      0.58      0.14
  215                194.77      0.55      0.12
  217               -232.89      0.66      0.17
  219               -244.99      0.69      0.19
  221                244.99      1.56      1.35
  223                 74.48      0.21      0.02
  225                 95.61      0.27      0.03
  229               4740.23      3.36      1.33
  231               4485.60      3.18      1.20
  233               4495.13      3.19      1.40
  235                106.68      0.30      0.04
  237                464.82      1.32      0.61
  238                427.29      1.21      0.52
  239                 48.52      0.14      0.01
  240                427.29      1.21      0.52
  241                427.29      1.21      0.52
  243                426.21      0.68      0.13
  245                285.81      0.46      0.06
  247                223.86      0.36      0.04
  249                109.54      0.17      0.01
  251                 51.24      0.11      0.00
  257                 28.27      0.08      0.00
  261                 44.67      0.29      0.06
  263                 20.44      0.06      0.00
  269                129.66      0.37      0.06
  271                 55.35      0.35      0.09
  273                 54.95      0.16      0.01
  275                  3.35      0.01      0.00
  277                  5.38      0.02      0.00
  281                 -2.03      0.01      0.00
  283                 -3.72      0.01      0.00
  285                -13.45      0.04      0.00
  287                -75.84      0.31      0.05
  289                240.67      0.98      0.44
  291                 67.60      0.28      0.04
  293                 47.14      0.30      0.06
  295                -17.18      0.05      0.00
  297                480.78      3.07      4.71
  299                230.99      1.47      1.21
  301                230.99      1.47      1.21
  303                249.79      1.59      1.40
  305                146.21      0.41      0.07
  307                395.99      1.12      0.46
  309                197.08      1.26      0.90
  311                 -2.31      0.01      0.00
  313                438.88      1.25      0.55
  315              -2140.09      1.52      0.35
  317                113.37      0.72      0.32
  319                 -6.69      0.02      0.00
  321               7583.13      3.44      1.07
  323                -64.84      0.18      0.02
  325                152.17      0.97      0.56
  329              13142.00      5.96      3.00
  330                  0.00      0.00      0.00
  333                 -0.00      0.00      0.00
  10                   0.00      0.00      0.00  Pump
  335              13142.00      0.00    -93.58  Pump
   
   
  Node Results at 0:25:00 hrs:
  --------------------------------------------------------
                     Demand      Head  Pressure  Chemical
  Node                  gpm        ft       psi      mg/L
  --------------------------------------------------------
  10                   0.00    146.45     -0.24      0.00
  15                 564.00    131.51     43.12      0.00
  20                   0.00    158.37     12.73      0.00
  35                1667.58    146.23     57.94      0.00
  40                   0.00    145.31      5.81      0.00
  50                   0.00    139.56      9.99      0.00
  60                   0.00    209.04     90.58      0.00
  601                  0.00    302.64    131.13      0.00
  61                   0.00    302.64    131.13      0.00
  101                235.54    146.45     45.26      0.00
  103                165.17    146.41     44.81      0.00
  105                167.86    147.71     51.65      0.00
  107                 67.75    147.69     54.46      0.00
  109                286.94    146.41     54.64      0.00
  111                176.01    146.87     59.31      0.00
  113                 24.81    146.88     62.78      0.00
  115                 64.60    147.72     57.94      0.00
  117                145.96    150.82     59.46      0.00
  119                218.40    158.13     67.65      0.00
  120                  0.00    155.77     67.50      0.00
  121                 51.62    161.55     70.87      0.00
  123                  0.00    166.00     67.16      0.00
  125                 56.54    160.95     64.97      0.00
  127                 21.90    159.18     44.71      0.00
  129                  0.00    159.17     46.87      0.00
  131                 53.01    159.15     66.36      0.00
  139                  7.30    154.40     53.47      0.00
  141                 12.21    151.02     63.70      0.00
  143                  7.69    141.94     63.45      0.00
  145                 34.26    152.04     65.45      0.00
  147                 10.60    152.82     58.20      0.00
  149                 33.57    153.15     59.43      0.00
  151                179.16    156.40     53.25      0.00
  153                 54.77    156.49     39.12      0.00
  157                 64.22    155.68     61.78      0.00
  159                 51.24    152.31     63.40      0.00
  161                 19.59    150.02     63.27      0.00
  163                 11.68    149.55     62.64      0.00
  164                  0.00    149.55     62.64      0.00
  166                  3.22    149.55     65.67      0.00
  167                 18.05    147.67     66.15      0.00
  169                  0.00    147.67     66.15      0.00
  171                 48.78    146.56     65.24      0.00
  173                  0.00    146.54     65.23      0.00
  177                 72.13    146.22     59.89      0.00
  179                  0.00    146.20     59.88      0.00
  181                  0.00    146.23     59.90      0.00
  183                  0.00    146.21     58.59      0.00
  184                  0.00    145.01     55.90      0.00
  185                 31.81    145.62     56.17      0.00
  187                  0.00    146.41     58.02      0.00
  189                133.82    146.69     61.83      0.00
  191                101.56    146.75     52.76      0.00
  193                 88.42    146.84     55.83      0.00
  195                  0.00    146.91     56.94      0.00
  197                 21.13    146.78     53.63      0.00
  199                147.96    141.20     62.05      0.00
  201                 55.32    140.44     60.81      0.00
  203               4495.13    140.27     59.91      0.00
  204                  0.00    146.13     54.22      0.00
  205                 81.05    141.17     52.07      0.00
  206                  0.00    140.18     60.31      0.00
  207                 86.04    140.43     56.95      0.00
[...]
  219                 70.66    137.85     58.00      0.00
  225                 38.99    137.86     56.27      0.00
  229                109.75    138.07     55.28      7.79
  231                 28.18    138.07     57.66      0.00
  237                 26.69    138.25     53.84      6.42
  239                 76.28    138.25     54.27      9.31
  241                  0.00    138.25     54.27      0.00
  243                  7.42    138.25     53.84      0.00
  247                120.35    138.26     52.11      0.00
  249                  0.00    138.26     52.11      3.48
  251                 41.31    138.28     46.92      0.00
  253                 93.23    138.51     44.42      0.00
  255                 69.07    138.59     48.35      0.00
  257                  0.00    150.85     58.00      0.00
  259                  0.00    150.39     54.33      0.00
  261                  0.00    148.74     64.45      0.00
  263                  0.00    148.56     64.37      0.00
  265                  0.00    147.85     64.06      0.00
  267                  0.00    146.11     54.21      0.00
  269                  0.00    146.65     63.54      0.00
  271                  0.00    146.29     60.79      0.00
  273                  0.00    140.50     57.41      0.00
  275                  0.00    139.76     56.23      0.00
  River           -13231.58    220.00      0.00      0.00  Reservoir
  Lake                 0.00    167.00      0.00      0.00  Reservoir
  1                 -641.19    147.58      6.80      0.00  Tank
  2                 -441.34    139.85     10.12      0.00  Tank
  3                  729.85    159.38     13.16      0.00  Tank
   
   
  Link Results at 23:55:00 hrs:
  ----------------------------------------------
                       Flow  Velocity  Headloss
  Link                  gpm       fps   /1000ft
  ----------------------------------------------
  20                -729.85      0.03      0.00
  40                 641.19      0.03      0.00
  50                 441.34      0.02      0.00
  60               13231.58      9.38      9.02
  101                  0.00      0.00      0.00
  103                121.38      0.19      0.01
  105               -446.20      1.27      0.57
  107                -15.29      0.04      0.00
  109               -106.39      0.17      0.01
  111               -502.08      1.42      0.71
  112                421.58      1.20      0.51
  113               -208.23      0.59      0.14
  114                 82.65      0.53      0.18
  115               -108.73      0.69      0.30
  116               -159.81      0.45      0.08
  117                662.39      1.88      1.18
  119               -702.04      1.99      1.32
  120               1199.89      3.40      3.55
  121               1064.97      3.02      2.85
  122                365.82      2.33      2.84
  123               9455.25      4.29      1.61
  125              11259.85      5.11      2.23
  129               1367.59      0.97      0.15
  131               1083.25      0.77      0.10
  133               -729.85      0.75      0.12
  135                323.20      0.23      0.01
  137                 73.10      0.12      0.00
  145                250.10      1.60      1.40
  147                240.03      1.53      1.30
  149               -380.04      2.43      3.04
  151               -369.44      2.36      2.89
  153                156.86      0.44      0.08
  155                204.11      0.58      0.13
  159               -218.73      0.62      0.15
  161               -265.02      1.69      1.56
  163               -130.83      0.37      0.06
  169                206.36      1.32      0.98
  171                381.25      1.08      0.42
  173               7572.93      3.44      1.07
  175               7484.37      3.40      1.05
  177               7413.71      3.36      1.03
  179               7120.81      3.23      0.95
  180                  4.45      0.01      0.00
  181                  4.45      0.01      0.00
  183               6880.76      3.12      0.89
  185                -24.90      0.16      0.02
  186                280.60      1.79      1.74
  187               6236.85      2.83      0.75
  189               4965.78      2.25      0.49
  191              -1203.80      0.85      0.12
  193              -1496.11      1.06      0.18
  195               -186.76      0.53      0.11
  197               -286.23      0.81      0.25
  199                354.95      1.01      0.37
  201                641.19      1.82      1.11
  202                559.47      3.57      6.23
  203                322.73      2.06      2.25
  204                559.47      1.59      0.86
  205                280.60      0.80      0.24
  207                -32.22      0.09      0.00
  209                239.77      1.53      1.30
  211                619.01      1.76      1.04
  213                 40.83      0.12      0.01
  215               -121.37      0.34      0.05
  217               -325.01      0.92      0.32
  219               -265.88      0.75      0.22
  221                265.88      1.70      1.57
  223               -144.13      0.41      0.07
  225               -114.99      0.33      0.05
  229               4965.78      3.52      1.45
  231               4608.97      3.27      1.26
  233               4534.70      3.22      1.42
  235                152.77      0.43      0.08
  237                485.74      1.38      0.67
  238                479.81      1.36      0.65
  239                112.72      0.32      0.04
  240                479.81      1.36      0.65
  241                479.81      1.36      0.65
  243                478.32      0.76      0.16
  245                377.79      0.60      0.10
  247                308.71      0.49      0.07
  249                151.06      0.24      0.02
  251                 70.66      0.15      0.01
  257                 38.99      0.11      0.01
  261                 45.25      0.29      0.06
  263                 28.18      0.08      0.00
  269                 85.70      0.24      0.03
  271                 92.68      0.59      0.22
  273                -33.67      0.10      0.00
  275                -36.62      0.10      0.01
  277                  7.42      0.02      0.00
  281                -44.04      0.18      0.02
  283                -73.34      0.21      0.02
  285                  9.21      0.03      0.00
  287               -173.59      0.71      0.24
  289                441.34      1.80      1.35
  291                 93.23      0.38      0.08
  293                105.45      0.67      0.28
  295                -64.13      0.18      0.02
  297                500.74      3.20      5.07
  299                240.80      1.54      1.31
  301                240.80      1.54      1.31
  303                259.94      1.66      1.51
  305                161.65      0.46      0.09
  307                421.59      1.20      0.51
  309                219.50      1.40      1.10
  311               -340.88      0.97      0.35
  313                513.46      1.46      0.74
  315              -1309.35      0.93      0.14
  317                114.74      0.73      0.33
  319                 38.04      0.11      0.01
  321               7100.26      3.22      0.95
  323                 -2.01      0.01      0.00
  325                105.55      0.67      0.28
  329              13231.58      6.01      3.04
  330                  0.00      0.00      0.00
  333                 -0.00      0.00      0.00
  10                   0.00      0.00      0.00  Pump
  335              13231.58      0.00    -92.79  Pump
   
   
  Node Results at 24:00:00 hrs:
  --------------------------------------------------------
                     Demand      Head  Pressure  Chemical
  Node                  gpm        ft       psi      mg/L
  --------------------------------------------------------
  10                   0.00    147.95      0.41      0.00
  15                 564.00    132.69     43.63      0.00
  20                   0.00    159.40     13.17      0.00
  35                1667.58    147.83     58.64      0.00
  40                   0.00    147.51      6.76      0.00
  50                   0.00    139.70     10.05      0.00
  60                   0.00    209.10     90.60      0.00
  601                  0.00    303.05    131.31      0.00
  61                   0.00    303.05    131.31      0.00
  101                235.54    147.95     45.91      0.00
  103                165.17    147.91     45.46      0.00
  105                167.86    149.18     52.29      0.00
  107                 67.75    149.17     55.10      0.00
  109                286.94    147.91     55.29      0.00
  111                176.01    148.38     59.96      0.00
  113                 24.81    148.40     63.43      0.00
  115                 64.60    149.21     58.59      0.00
  117                145.96    152.24     60.07      0.00
  119                218.40    159.40     68.20      0.00
  120                  0.00    157.09     68.07      0.00
  121                 51.62    162.75     71.39      0.00
  123                  0.00    167.17     67.67      0.00
  125                 56.54    162.12     65.48      0.00
  127                 21.90    160.25     45.17      0.00
  129                  0.00    160.24     47.34      0.00
  131                 53.01    160.23     66.83      0.00
  139                  7.30    155.54     53.96      0.00
  141                 12.21    152.21     64.22      0.00
  143                  7.69    143.13     63.97      0.00
  145                 34.26    153.24     65.97      3.10
  147                 10.60    154.03     58.72      0.00
  149                 33.57    154.36     59.95      0.00
  151                179.16    157.64     53.79      0.00
  153                 54.77    157.73     39.66      0.00
  157                 64.22    157.01     62.36      0.00
  159                 51.24    153.72     64.01      0.00
  161                 19.59    151.48     63.90      0.00
  163                 11.68    151.03     63.27      0.00
  164                  0.00    151.03     63.27      0.00
  166                  3.22    151.03     66.31      0.00
  167                 18.05    149.19     66.81      0.00
  169                  0.00    149.19     66.81      0.00
  171                 48.78    148.11     65.91      0.00
  173                  0.00    148.08     65.90      0.00
  177                 72.13    147.83     60.59      0.00
  179                  0.00    147.82     60.58      0.00
  181                  0.00    147.83     60.59      0.00
  183                  0.00    147.83     59.29      0.00
  184                  0.00    146.53     56.56      0.00
  185                 31.81    147.17     56.83      0.00
  187                  0.00    147.95     58.69      0.00
  189                133.82    148.24     62.50      0.00
  191                101.56    148.28     53.42      0.00
  193                 88.42    148.37     56.49      0.00
  195                  0.00    148.44     57.60      0.00
  197                 21.13    148.30     54.29      0.00
  199                147.96    142.56     62.64      0.00
  201                 55.32    141.77     61.39      0.00
  203               4495.13    141.61     60.49      0.00
  204                  0.00    147.67     54.89      0.00
  205                 81.05    142.52     52.65      0.01
  206                  0.00    141.32     60.80      0.52
  207                 86.04    141.69     57.49      0.17
  208                  0.00    140.91     54.12      0.74
  209                  1.08    140.19     61.61      0.14
  211                 10.75    139.95     57.61      0.00
  213                 17.29    139.88     57.58      0.00
  215                114.32    139.71     57.50      5.71
  217                 30.03    139.69     57.93     19.07
  219                 51.24    139.68     58.79      0.00
  225                 28.27    139.69     57.06      0.00
  229                 79.58    139.60     55.94      7.41
  231                 20.44    139.60     58.32      0.00
  237                 19.36    139.63     54.43      6.30
  239                 55.32    139.58     54.85      9.10
  241                  0.00    139.58     54.85      0.00
  243                  5.38    139.58     54.41      0.00
  247                 87.27    139.57     52.68      0.00
  249                  0.00    139.57     52.68      4.18
  251                 29.96    139.57     47.48      0.00
  253                 67.60    139.53     44.86      0.00
  255                 50.08    139.57     48.78      0.00
  257                  0.00    154.11     59.41      0.00
  259                  0.00    153.70     55.76      0.00
  261                  0.00    152.19     65.94      0.00
  263                  0.00    152.03     65.88      0.00
  265                  0.00    149.77     64.90      0.00
  267                  0.00    148.37     55.19      0.00
  269                  0.00    148.59     64.38      0.00
  271                  0.00    147.91     61.49      0.00
  273                  0.00    142.52     58.29      0.00
  275                  0.00    141.77     57.10      0.00
  River           -13100.34    220.00      0.00      0.00  Reservoir
  Lake                 0.00    167.00      0.00      0.00  Reservoir
  1                  294.29    147.51      6.76      0.00  Tank
  2                 -126.85    139.70     10.05      0.00  Tank
  3                 2426.54    159.40     13.17      0.00  Tank
   
   
  Link Results at 24:00:00 hrs:
  ----------------------------------------------
                       Flow  Velocity  Headloss
  Link                  gpm       fps   /1000ft
  ----------------------------------------------
  20               -2426.54      0.10      0.00
  40                -294.29      0.01      0.00
  50                 126.85      0.01      0.00
  60               13100.34      9.29      8.86
  101                  0.00      0.00      0.00
  103                174.65      0.28      0.02
  105               -410.18      1.16      0.49
  107                 42.35      0.12      0.01
  109                  9.48      0.02      0.00
  111               -277.46      0.79      0.24
  112                504.06      1.43      0.71
  113                -40.09      0.11      0.01
  114                128.37      0.82      0.41
  115                -25.40      0.16      0.02
  116                 63.47      0.18      0.02
  117                620.39      1.76      1.05
  119               -722.44      2.05      1.39
  120               1128.32      3.20      3.17
  121               1012.96      2.87      2.60
  122                360.47      2.30      2.76
  123               9647.78      4.38      1.67
  125              13100.34      5.95      2.95
  129               3040.47      2.16      0.68
  131               2779.75      1.97      0.58
  133              -2426.54      2.48      1.09
  135                331.31      0.23      0.01
  137                 53.01      0.08      0.00
  145                278.30      1.78      1.71
  147                271.00      1.73      1.63
  149               -571.69      3.65      6.48
  151               -564.00      3.60      6.32
  153                312.90      0.89      0.29
  155                347.16      0.98      0.36
  159               -357.77      1.01      0.38
  161               -391.33      2.50      3.21
  163               -149.41      0.42      0.07
  169                204.18      1.30      0.96
  171                421.08      1.19      0.51
  173               7879.98      3.58      1.15
  175               7815.76      3.55      1.13
  177               7764.52      3.52      1.12
  179               7502.51      3.41      1.05
  180                  3.22      0.01      0.00
  181                  3.22      0.01      0.00
  183               7292.20      3.31      1.00
  185                -18.05      0.12      0.01
  186                359.27      2.29      2.74
  187               6694.05      3.04      0.85
  189               4839.76      2.20      0.47
  191              -1805.51      1.28      0.26
  193              -1667.58      1.18      0.22
  195                285.23      0.81      0.25
  197                213.10      0.60      0.14
  199                -81.19      0.23      0.02
  201               -294.29      0.83      0.26
  202                566.85      3.62      6.38
  203                239.39      1.53      1.29
  204                566.85      1.61      0.89
  205                359.27      1.02      0.38
  207                320.58      0.91      0.31
  209                157.35      1.00      0.59
  211                580.10      1.65      0.92
  213                201.92      0.57      0.13
  215                178.95      0.51      0.10
  217               -233.92      0.66      0.17
  219               -242.42      0.69      0.18
  221                242.42      1.55      1.32
  223                 69.56      0.20      0.02
  225                 90.69      0.26      0.03
  229               4839.76      3.43      1.38
  231               4567.07      3.24      1.24
  233               4495.13      3.19      1.40
  235                124.73      0.35      0.05
  237                495.39      1.41      0.69
  238                541.11      1.54      0.81
  239                131.76      0.37      0.06
  240                541.11      1.54      0.81
  241                541.11      1.54      0.81
  243                540.04      0.86      0.20
  245                308.93      0.49      0.07
  247                223.86      0.36      0.04
  249                109.54      0.17      0.01
  251                 51.24      0.11      0.00
  257                 28.27      0.08      0.00
  261                 67.78      0.43      0.12
  263                 20.44      0.06      0.00
  269                220.36      0.63      0.15
  271                 32.24      0.21      0.03
  273                168.77      0.48      0.09
  275                 45.84      0.13      0.01
  277                  5.38      0.02      0.00
  281                 40.46      0.17      0.02
  283                 67.61      0.19      0.02
  285                -46.13      0.13      0.01
  287                 -0.69      0.00      0.00
  289                126.85      0.52      0.13
  291                 67.60      0.28      0.04
  293                  8.47      0.05      0.00
  295                 21.49      0.06      0.00
  297                475.83      3.04      4.62
  299                228.61      1.46      1.19
  301                228.61      1.46      1.19
  303                247.22      1.58      1.37
  305                144.56      0.41      0.07
  307                391.78      1.11      0.45
  309                195.41      1.25      0.89
  311                -16.45      0.05      0.00
  313                432.80      1.23      0.54
  315              -1952.81      1.38      0.30
  317                115.14      0.73      0.33
  319                  9.59      0.03      0.00
  321               7487.60      3.40      1.05
  323                 16.63      0.05      0.00
  325                147.30      0.94      0.53
  329              13100.34      5.95      2.99
  330                  0.00      0.00      0.00
  333                 -0.00      0.00      0.00
  10                   0.00      0.00      0.00  Pump
  335              13100.34      0.00    -93.95  Pump
   
  Analysis ended Wed May 06 16:58:43 2020
