  Page 1                                    Wed May 06 17:00:28 2020

  ******************************************************************
  *                           E P A N E T                          *
  *                   Hydraulic and Water Quality                  *
  *                   Analysis for Pipe Networks                   *
  *                         Version 2.00.12                        *
  ******************************************************************
  
  Analysis begun Wed May 06 17:00:28 2020

   
  Hydraulic Status:
  -----------------------------------------------------------------------
     0:00:00: Balanced after 6 trials
     0:00:00: Reservoir River is emptying
     0:00:00: Reservoir Lake is closed
     0:00:00: Tank 1 is filling at 13.10 ft
     0:00:00: Tank 2 is emptying at 23.50 ft
     0:00:00: Tank 3 is filling at 29.00 ft
   
     0:05:00: Balanced after 2 trials
   
     0:10:00: Balanced after 2 trials
   
     0:15:00: Balanced after 2 trials
   
     0:20:00: Balanced after 2 trials
   
     0:25:00: Balanced after 2 trials
   
     0:30:00: Balanced after 2 trials
   
     0:35:00: Balanced after 2 trials
   
     0:40:00: Balanced after 2 trials
   
     0:45:00: Balanced after 2 trials
   
     0:50:00: Balanced after 2 trials
   
     0:55:00: Balanced after 2 trials
   
     1:00:00: Pump 10 changed by timer control
     1:00:00: Balanced after 8 trials
     1:00:00: Reservoir Lake is emptying
     1:00:00: Pump 10 changed from closed to open
   
     1:05:00: Balanced after 2 trials
   
     1:10:00: Balanced after 2 trials
   
     1:15:00: Balanced after 2 trials
   
     1:20:00: Balanced after 2 trials
   
     1:25:00: Balanced after 2 trials
   
     1:30:00: Balanced after 2 trials
   
     1:35:00: Balanced after 2 trials
   
     1:40:00: Balanced after 2 trials
   
     1:45:00: Balanced after 2 trials
   
     1:50:00: Balanced after 2 trials
   
     1:55:00: Balanced after 2 trials
   
     2:00:00: Balanced after 4 trials
     2:00:00: Tank 2 is filling at 20.02 ft
   
     2:05:00: Balanced after 1 trials
   
     2:10:00: Balanced after 1 trials
   
     2:15:00: Balanced after 1 trials
   
     2:20:00: Balanced after 1 trials
   
     2:25:00: Balanced after 1 trials
   
     2:30:00: Balanced after 1 trials
   
     2:35:00: Balanced after 1 trials
   
     2:40:00: Balanced after 1 trials
   
     2:45:00: Balanced after 1 trials
   
     2:50:00: Balanced after 1 trials
   
     2:55:00: Balanced after 1 trials
   
     3:00:00: Balanced after 3 trials
   
     3:05:00: Balanced after 1 trials
   
     3:10:00: Balanced after 1 trials
   
     3:15:00: Balanced after 1 trials
   
     3:20:00: Balanced after 1 trials
   
     3:25:00: Balanced after 1 trials
   
     3:30:00: Balanced after 1 trials
   
     3:35:00: Balanced after 1 trials
   
     3:40:00: Balanced after 1 trials
   
     3:45:00: Balanced after 1 trials
   
     3:50:00: Balanced after 1 trials
   
     3:55:00: Balanced after 1 trials
   
     4:00:00: Balanced after 3 trials
   
     4:05:00: Balanced after 1 trials
   
     4:10:00: Balanced after 1 trials
   
     4:15:00: Balanced after 1 trials
   
     4:20:00: Balanced after 1 trials
   
     4:25:00: Balanced after 1 trials
   
     4:30:00: Balanced after 1 trials
   
     4:35:00: Balanced after 1 trials
   
     4:39:20: Pump 335 changed by Tank 1 control
     4:39:20: Pipe 330 changed by Tank 1 control
     4:39:20: Balanced after 4 trials
     4:39:20: Pipe 330 changed from closed to open
     4:39:20: Pump 335 changed from open to closed
   
     4:40:00: Balanced after 1 trials
   
     4:45:00: Balanced after 2 trials
   
     4:50:00: Balanced after 2 trials
   
     4:55:00: Balanced after 2 trials
   
     5:00:00: Balanced after 3 trials
     5:00:00: Tank 3 is emptying at 34.57 ft
   
     5:05:00: Balanced after 2 trials
   
     5:10:00: Balanced after 2 trials
   
     5:15:00: Balanced after 2 trials
   
     5:20:00: Balanced after 2 trials
   
     5:25:00: Balanced after 2 trials
   
     5:30:00: Balanced after 2 trials
   
     5:35:00: Balanced after 2 trials
   
     5:40:00: Balanced after 2 trials
   
     5:45:00: Balanced after 2 trials
   
     5:50:00: Balanced after 2 trials
   
     5:55:00: Balanced after 2 trials
   
     6:00:00: Balanced after 3 trials
     6:00:00: Tank 3 is filling at 34.38 ft
   
     6:05:00: Balanced after 1 trials
   
     6:10:00: Balanced after 1 trials
   
     6:15:00: Balanced after 1 trials
   
     6:20:00: Balanced after 1 trials
   
     6:25:00: Balanced after 1 trials
   
     6:30:00: Balanced after 1 trials
   
     6:35:00: Balanced after 1 trials
   
     6:40:00: Balanced after 1 trials
   
     6:45:00: Balanced after 1 trials
   
     6:50:00: Balanced after 1 trials
   
     6:55:00: Balanced after 1 trials
   
     7:00:00: Balanced after 3 trials
   
     7:05:00: Balanced after 1 trials
   
     7:10:00: Balanced after 1 trials
   
     7:15:00: Balanced after 1 trials
   
     7:20:00: Balanced after 1 trials
   
     7:25:00: Balanced after 1 trials
   
     7:30:00: Balanced after 1 trials
   
     7:35:00: Balanced after 1 trials
   
     7:40:00: Balanced after 1 trials
   
     7:45:00: Balanced after 1 trials
   
     7:50:00: Balanced after 1 trials
   
     7:55:00: Balanced after 1 trials
   
     8:00:00: Balanced after 3 trials
   
     8:05:00: Balanced after 1 trials
   
     8:10:00: Balanced after 1 trials
   
     8:15:00: Balanced after 1 trials
   
     8:20:00: Balanced after 1 trials
   
     8:25:00: Balanced after 1 trials
   
     8:30:00: Balanced after 1 trials
   
     8:35:00: Balanced after 1 trials
   
     8:40:00: Balanced after 1 trials
   
     8:45:00: Balanced after 1 trials
   
     8:50:00: Balanced after 1 trials
   
     8:55:00: Balanced after 1 trials
   
     9:00:00: Balanced after 3 trials
     9:00:00: Tank 1 is emptying at 21.58 ft
     9:00:00: Tank 2 is emptying at 26.35 ft
     9:00:00: Tank 3 is emptying at 35.15 ft
   
     9:05:00: Balanced after 1 trials
   
     9:10:00: Balanced after 1 trials
   
     9:15:00: Balanced after 1 trials
   
     9:20:00: Balanced after 1 trials
   
     9:25:00: Balanced after 1 trials
   
     9:30:00: Balanced after 1 trials
   
     9:35:00: Balanced after 1 trials
   
     9:40:00: Balanced after 1 trials
   
     9:45:00: Balanced after 1 trials
   
     9:50:00: Balanced after 1 trials
   
     9:55:00: Balanced after 1 trials
   
    10:00:00: Balanced after 4 trials
    10:00:00: Tank 1 is filling at 20.87 ft
    10:00:00: Tank 2 is filling at 25.51 ft
   
    10:05:00: Balanced after 2 trials
   
    10:10:00: Balanced after 2 trials
   
    10:15:00: Balanced after 2 trials
   
    10:20:00: Balanced after 2 trials
   
    10:25:00: Balanced after 2 trials
   
    10:30:00: Balanced after 2 trials
   
    10:35:00: Balanced after 2 trials
   
    10:40:00: Balanced after 2 trials
   
    10:45:00: Balanced after 2 trials
   
    10:50:00: Balanced after 2 trials
   
    10:55:00: Balanced after 2 trials
   
    11:00:00: Balanced after 3 trials
    11:00:00: Tank 1 is emptying at 21.28 ft
   
    11:05:00: Balanced after 1 trials
   
    11:10:00: Balanced after 1 trials
   
    11:15:00: Balanced after 1 trials
   
    11:20:00: Balanced after 1 trials
   
    11:25:00: Balanced after 1 trials
   
    11:30:00: Balanced after 1 trials
   
    11:35:00: Balanced after 1 trials
   
    11:40:00: Balanced after 1 trials
   
    11:45:00: Balanced after 1 trials
   
    11:50:00: Balanced after 1 trials
   
    11:55:00: Balanced after 1 trials
   
    12:00:00: Balanced after 3 trials
    12:00:00: Tank 2 is emptying at 26.44 ft
   
    12:05:00: Balanced after 1 trials
   
    12:10:00: Balanced after 1 trials
   
    12:15:00: Balanced after 1 trials
   
    12:20:00: Balanced after 1 trials
   
    12:25:00: Balanced after 1 trials
   
    12:30:00: Balanced after 1 trials
   
    12:35:00: Balanced after 1 trials
   
    12:40:00: Balanced after 1 trials
   
    12:45:00: Balanced after 1 trials
   
    12:50:00: Balanced after 1 trials
   
    12:55:00: Balanced after 1 trials
   
    13:00:00: Balanced after 3 trials
    13:00:00: Tank 2 is filling at 26.09 ft
   
    13:05:00: Balanced after 1 trials
   
    13:10:00: Balanced after 1 trials
   
    13:15:00: Balanced after 1 trials
   
    13:20:00: Balanced after 1 trials
   
    13:25:00: Balanced after 1 trials
   
    13:30:00: Balanced after 1 trials
   
    13:35:00: Balanced after 1 trials
   
    13:40:00: Balanced after 1 trials
   
    13:45:00: Balanced after 1 trials
   
    13:50:00: Balanced after 1 trials
   
    13:55:00: Balanced after 1 trials
   
    14:00:00: Balanced after 3 trials
    14:00:00: Tank 1 is filling at 20.49 ft
   
    14:05:00: Balanced after 2 trials
   
    14:10:00: Balanced after 2 trials
   
    14:15:00: Balanced after 2 trials
   
    14:20:00: Balanced after 2 trials
   
    14:25:00: Balanced after 2 trials
   
    14:30:00: Balanced after 2 trials
   
    14:35:00: Balanced after 2 trials
   
    14:40:00: Balanced after 2 trials
   
    14:45:00: Balanced after 2 trials
   
    14:50:00: Balanced after 2 trials
   
    14:55:00: Balanced after 2 trials
   
    15:00:00: Pump 10 changed by timer control
    15:00:00: Balanced after 5 trials
    15:00:00: Reservoir Lake is closed
    15:00:00: Tank 1 is emptying at 21.25 ft
    15:00:00: Pump 10 changed from open to closed
   
    15:05:00: Balanced after 2 trials
   
    15:10:00: Balanced after 2 trials
   
    15:15:00: Balanced after 2 trials
   
    15:20:00: Balanced after 2 trials
   
    15:25:00: Balanced after 2 trials
   
    15:30:00: Balanced after 2 trials
   
    15:35:00: Balanced after 2 trials
   
    15:40:00: Balanced after 2 trials
   
    15:45:00: Balanced after 2 trials
   
    15:50:00: Balanced after 2 trials
   
    15:55:00: Balanced after 2 trials
   
    16:00:00: Balanced after 3 trials
   
    16:05:00: Balanced after 2 trials
   
    16:10:00: Balanced after 2 trials
   
    16:15:00: Balanced after 2 trials
   
    16:20:00: Balanced after 2 trials
   
    16:25:00: Balanced after 2 trials
   
    16:30:00: Balanced after 2 trials
   
    16:35:00: Balanced after 2 trials
   
    16:40:00: Balanced after 2 trials
   
    16:45:00: Balanced after 2 trials
   
    16:50:00: Balanced after 2 trials
   
    16:55:00: Balanced after 2 trials
   
    17:00:00: Balanced after 3 trials
    17:00:00: Tank 2 is emptying at 27.83 ft
   
    17:05:00: Balanced after 1 trials
   
    17:10:00: Balanced after 1 trials
   
    17:15:00: Balanced after 1 trials
   
    17:20:00: Balanced after 1 trials
   
    17:25:00: Balanced after 1 trials
   
    17:30:00: Balanced after 1 trials
   
    17:35:00: Balanced after 1 trials
   
    17:40:00: Balanced after 1 trials
   
    17:45:00: Balanced after 1 trials
   
    17:50:00: Balanced after 1 trials
   
    17:55:00: Balanced after 1 trials
   
    18:00:00: Balanced after 3 trials
    18:00:00: Tank 2 is filling at 27.42 ft
   
    18:05:00: Balanced after 1 trials
   
    18:10:00: Balanced after 1 trials
   
    18:15:00: Balanced after 1 trials
   
    18:20:00: Balanced after 1 trials
   
    18:25:00: Balanced after 1 trials
   
    18:30:00: Balanced after 1 trials
   
    18:35:00: Balanced after 1 trials
   
    18:40:00: Balanced after 1 trials
    18:40:00: Tank 2 is emptying at 27.47 ft
   
    18:45:00: Balanced after 1 trials
   
    18:50:00: Balanced after 1 trials
   
    18:55:00: Balanced after 1 trials
   
    19:00:00: Balanced after 3 trials
   
    19:05:00: Balanced after 1 trials
   
    19:10:00: Balanced after 1 trials
   
    19:15:00: Balanced after 1 trials
   
    19:20:00: Balanced after 1 trials
   
    19:25:00: Balanced after 1 trials
   
    19:30:00: Balanced after 1 trials
   
    19:35:00: Balanced after 1 trials
   
    19:40:00: Balanced after 1 trials
   
    19:45:00: Balanced after 1 trials
   
    19:50:00: Balanced after 1 trials
   
    19:55:00: Balanced after 1 trials
   
    20:00:00: Balanced after 3 trials
   
    20:05:00: Balanced after 2 trials
   
    20:10:00: Balanced after 2 trials
   
    20:15:00: Balanced after 2 trials
   
    20:20:00: Balanced after 2 trials
   
    20:25:00: Balanced after 2 trials
   
    20:30:00: Balanced after 2 trials
   
    20:35:00: Balanced after 2 trials
   
    20:35:55: Pump 335 changed by Tank 1 control
    20:35:55: Pipe 330 changed by Tank 1 control
    20:35:55: Balanced after 5 trials
    20:35:55: Tank 3 is filling at 29.82 ft
    20:35:55: Pipe 330 changed from open to closed
    20:35:55: Pump 335 changed from closed to open
   
    20:40:00: Balanced after 2 trials
   
    20:45:00: Balanced after 2 trials
   
    20:50:00: Balanced after 2 trials
   
    20:55:00: Balanced after 2 trials
   
    21:00:00: Balanced after 3 trials
    21:00:00: Tank 1 is filling at 17.02 ft
   
    21:05:00: Balanced after 2 trials
   
    21:10:00: Balanced after 2 trials
   
    21:15:00: Balanced after 2 trials
   
    21:20:00: Balanced after 2 trials
   
    21:25:00: Balanced after 2 trials
   
    21:30:00: Balanced after 2 trials
   
    21:35:00: Balanced after 2 trials
   
    21:40:00: Balanced after 2 trials
   
    21:45:00: Balanced after 2 trials
   
    21:50:00: Balanced after 2 trials
   
    21:55:00: Balanced after 2 trials
   
    22:00:00: Balanced after 3 trials
    22:00:00: Tank 1 is emptying at 17.09 ft
   
    22:05:00: Balanced after 2 trials
   
    22:10:00: Balanced after 2 trials
   
    22:15:00: Balanced after 2 trials
   
    22:20:00: Balanced after 2 trials
   
    22:25:00: Balanced after 2 trials
   
    22:30:00: Balanced after 2 trials
   
    22:35:00: Balanced after 2 trials
   
    22:40:00: Balanced after 2 trials
   
    22:45:00: Balanced after 2 trials
   
    22:50:00: Balanced after 2 trials
   
    22:55:00: Balanced after 2 trials
   
    23:00:00: Balanced after 4 trials
   
    23:05:00: Balanced after 2 trials
   
    23:10:00: Balanced after 2 trials
   
    23:15:00: Balanced after 2 trials
   
    23:20:00: Balanced after 2 trials
   
    23:25:00: Balanced after 2 trials
   
    23:30:00: Balanced after 2 trials
   
    23:35:00: Balanced after 2 trials
   
    23:40:00: Balanced after 2 trials
   
    23:45:00: Balanced after 2 trials
   
    23:50:00: Balanced after 2 trials
   
    23:55:00: Balanced after 2 trials
   
    24:00:00: Balanced after 4 trials
   
   
  Node Results at 0:00:00 hrs:
  --------------------------------------------------------
                     Demand      Head  Pressure  Chemical
  Node                  gpm        ft       psi      mg/L
  --------------------------------------------------------
  10                   0.00    143.98     -1.31      0.00
  15                 610.78    125.77     40.63      0.00
  20                   0.00    158.00     12.57      0.00
  35                1748.43    145.00     57.41      0.00
  40                   0.00    145.00      5.68      0.00
  50                   0.00    140.00     10.18      0.00
  60                   0.00    208.99     90.55      0.00
  601                  0.00    302.29    130.98      0.00
  61                   0.00    302.29    130.98      0.00
  101                290.62    143.98     44.19      0.00
  103                203.80    143.95     43.74      0.00
  105                207.12    145.41     50.66      0.00
  107                 83.60    145.40     53.47      0.00
  109                354.04    143.96     53.58      0.00
  111                217.17    144.91     58.46      0.00
  113                 30.62    145.02     61.97      0.00
  115                 79.71    145.67     57.05      0.00
  117                180.10    148.86     58.61      0.00
  119                269.48    156.96     67.14      0.00
  120                  0.00    154.33     66.87      0.00
  121                 63.69    160.55     70.43      0.00
  123                  0.00    165.01     66.73      0.00
  125                 69.77    160.03     64.58      0.00
  127                 27.02    158.60     44.46      0.00
  129                  0.00    158.59     46.62      0.00
  131                 65.41    158.56     66.10      0.00
  139                  9.01    152.63     52.70      0.00
  141                 15.07    148.42     62.58      0.00
  143                  9.49    137.87     61.69      0.00
  145                 42.27    149.55     64.37      0.00
  147                 13.08    150.44     57.17      0.00
  149                 41.42    150.82     58.42      0.00
  151                221.05    154.64     52.49      0.00
  153                 67.58    154.74     38.36      0.00
  157                 79.24    154.47     61.25      0.00
  159                 63.22    151.04     62.85      0.00
  161                 24.17    148.73     62.71      0.00
  163                 14.41    148.26     62.08      0.00
  164                  0.00    148.26     62.08      0.00
  166                  3.98    148.26     65.11      0.00
  167                 22.28    146.37     65.59      0.00
  169                  0.00    146.37     65.59      0.00
  171                 60.19    145.28     64.68      0.00
  173                  0.00    145.26     64.67      0.00
  177                 89.00    145.01     59.36      0.00
  179                  0.00    145.00     59.36      0.00
  181                  0.00    145.01     59.37      0.00
  183                  0.00    145.00     58.06      0.00
  184                  0.00    143.53     55.26      0.00
  185                 39.24    144.14     55.52      0.00
  187                  0.00    144.76     57.31      0.00
  189                165.12    145.17     61.17      0.00
  191                125.31    144.92     51.96      0.00
  193                109.10    145.04     55.05      0.00
  195                  0.00    145.12     56.17      0.00
  197                 26.07    144.91     52.82      0.00
  199                182.56    139.72     61.41      0.00
  201                 68.25    138.95     60.16      0.00
  203               4582.65    138.77     59.26      0.00
  204                  0.00    144.55     53.53      0.00
  205                100.00    139.69     51.43      0.00
  206                  0.00    138.79     59.70      0.00
  207                106.17    138.96     56.31      0.00
  208                  0.00    138.60     53.12      0.00
  209                  1.33    138.26     60.77      0.00
  211                 13.27    138.15     56.83      0.00
  213                 21.33    138.07     56.79      0.00
  215                141.05    137.82     56.68      0.00
  217                 37.06    137.80     57.11      0.00
  219                 63.22    137.78     57.97      0.00
  225                 34.88    137.79     56.24      0.00
  229                 98.20    137.99     55.24      0.00
  231                 25.21    137.98     57.62      0.00
  237                 23.88    138.15     53.79      0.00
  239                 68.25    138.16     54.23      0.00
  241                  0.00    138.17     54.23      0.00
  243                  6.64    138.16     53.80      0.00
  247                107.68    138.18     52.08      0.00
  249                  0.00    138.18     52.08      0.00
  251                 36.96    138.22     46.89      0.00
  253                 83.42    138.55     44.43      0.00
  255                 61.80    138.62     48.36      0.00
  257                  0.00    150.98     58.05      0.00
  259                  0.00    150.51     54.38      0.00
  261                  0.00    148.81     64.48      0.00
  263                  0.00    148.63     64.40      0.00
  265                  0.00    146.97     63.68      0.00
  267                  0.00    145.18     53.81      0.00
  269                  0.00    145.64     63.11      0.00
  271                  0.00    145.09     60.27      0.00
  273                  0.00    139.69     57.06      0.00
  275                  0.00    138.96     55.88      0.00
  River           -13173.25    220.00      0.00      0.00  Reservoir
  Lake                 0.00    167.00      0.00      0.00  Reservoir
  1                   27.95    145.00      5.68      0.00  Tank
  2                 -465.44    140.00     10.18      0.00  Tank
  3                 2005.27    158.00     12.57      0.00  Tank
   
   
  Link Results at 0:00:00 hrs:
  ----------------------------------------------
                       Flow  Velocity  Headloss
  Link                  gpm       fps   /1000ft
  ----------------------------------------------
  20               -2005.27      0.08      0.00
  40                 -27.95      0.00      0.00
  50                 465.44      0.02      0.00
  60               13173.25      9.34      8.95
  101                  0.00      0.00      0.00
  103                152.80      0.24      0.02
  105               -443.42      1.26      0.56
  107                 12.77      0.04      0.00
  109                -51.00      0.08      0.00
  111               -405.04      1.15      0.48
  112                480.43      1.36      0.65
  113               -139.95      0.40      0.07
  114                113.06      0.72      0.32
  115                -70.83      0.45      0.14
  116                -57.50      0.16      0.01
  117                663.30      1.88      1.18
  119               -744.04      2.11      1.47
  120               1208.25      3.43      3.60
  121               1080.02      3.06      2.92
  122                379.19      2.42      3.03
  123              10020.77      4.55      1.79
  125              13173.25      5.98      2.98
  129               2709.60      1.92      0.55
  131               2413.88      1.71      0.44
  133              -2005.27      2.05      0.76
  135                381.58      0.27      0.01
  137                 65.41      0.10      0.00
  145                316.18      2.02      2.17
  147                307.17      1.96      2.05
  149               -620.27      3.96      7.54
  151               -610.78      3.90      7.33
  153                328.17      0.93      0.32
  155                370.44      1.05      0.40
  159               -383.53      1.09      0.43
  161               -424.94      2.71      3.74
  163               -158.37      0.45      0.08
  169                225.95      1.44      1.16
  171                487.63      1.38      0.67
  173               8055.42      3.66      1.20
  175               7976.18      3.62      1.18
  177               7912.96      3.59      1.16
  179               7623.28      3.46      1.08
  180                  3.98      0.01      0.00
  181                  3.98      0.01      0.00
  183               7381.78      3.35      1.02
  185                -22.28      0.14      0.02
  186                317.83      2.03      2.19
  187               6715.04      3.05      0.85
  189               4844.29      2.20      0.47
  191              -1810.55      1.28      0.26
  193              -1748.43      1.24      0.24
  195                194.58      0.55      0.12
  197                105.58      0.30      0.04
  199                 77.64      0.22      0.02
  201                -27.95      0.08      0.00
  202                554.08      3.54      6.12
  203                275.50      1.76      1.68
  204                554.08      1.57      0.85
  205                317.83      0.90      0.30
  207                197.86      0.56      0.13
  209                186.08      1.19      0.81
  211                644.46      1.83      1.12
  213                131.75      0.37      0.06
  215                 37.05      0.11      0.01
  217               -284.96      0.81      0.25
  219               -265.51      0.75      0.22
  221                265.51      1.69      1.57
  223                -27.91      0.08      0.00
  225                 -1.83      0.01      0.00
  229               4844.29      3.44      1.38
  231               4541.30      3.22      1.23
  233               4582.65      3.25      1.45
  235                120.44      0.34      0.05
  237                460.96      1.31      0.60
  238                358.74      1.02      0.38
  239                  3.95      0.01      0.00
  240                358.74      1.02      0.38
  241                358.74      1.02      0.38
  243                357.41      0.57      0.09
  245                332.73      0.53      0.08
  247                276.21      0.44      0.06
  249                135.16      0.22      0.02
  251                 63.22      0.13      0.01
  257                 34.88      0.10      0.01
  261                 35.19      0.22      0.04
  263                 25.21      0.07      0.00
  269                 11.42      0.03      0.00
  271                 88.22      0.56      0.20
  273               -100.68      0.29      0.04
  275                -59.18      0.17      0.01
  277                  6.64      0.02      0.00
  281                -65.82      0.27      0.04
  283               -109.76      0.31      0.04
  285                 26.45      0.08      0.00
  287               -199.95      0.82      0.31
  289                465.44      1.90      1.49
  291                 83.42      0.34      0.06
  293                120.27      0.77      0.36
  295                -83.30      0.24      0.03
  297                507.42      3.24      5.20
  299                243.83      1.56      1.34
  301                243.83      1.56      1.34
  303                263.59      1.68      1.55
  305                155.88      0.44      0.08
  307                419.47      1.19      0.51
  309                223.11      1.42      1.14
  311               -186.06      0.53      0.11
  313                512.01      1.45      0.73
  315              -1943.01      1.38      0.30
  317                113.56      0.72      0.33
  319                  6.88      0.02      0.00
  321               7604.89      3.45      1.08
  323               -109.61      0.31      0.04
  325                132.46      0.85      0.43
  329              13173.25      5.98      3.02
  330                  0.00      0.00      0.00
  333                 -0.00      0.00      0.00
  10                   0.00      0.00      0.00  Pump
  335              13173.25      0.00    -93.31  Pump
   
   
  Node Results at 0:05:00 hrs:
  --------------------------------------------------------
                     Demand      Head  Pressure  Chemical
  Node                  gpm        ft       psi      mg/L
  --------------------------------------------------------
  10                   0.00    143.99     -1.31      0.00
  15                 610.78    125.81     40.65      0.00
  20                   0.00    158.06     12.59      0.00
  35                1748.43    145.01     57.41      0.00
  40                   0.00    145.00      5.68      0.00
  50                   0.00    139.84     10.11      0.00
  60                   0.00    208.99     90.55      0.00
  601                  0.00    302.31    130.99      0.00
  61                   0.00    302.31    130.99      0.00
  101                290.62    143.99     44.19      0.00
  103                203.80    143.96     43.75      0.00
  105                207.12    145.42     50.66      0.00
  107                 83.60    145.42     53.48      0.00
  109                354.04    143.97     53.59      0.00
  111                217.17    144.92     58.46      0.00
  113                 30.62    145.03     61.98      0.00
  115                 79.71    145.68     57.06      0.00
  117                180.10    148.88     58.62      0.00
  119                269.48    156.99     67.16      0.00
  120                  0.00    154.36     66.88      0.00
  121                 63.69    160.58     70.45      0.00
  123                  0.00    165.05     66.75      0.00
  125                 69.77    160.08     64.60      0.00
  127                 27.02    158.66     44.48      0.00
  129                  0.00    158.64     46.64      0.00
  131                 65.41    158.62     66.13      0.00
  139                  9.01    152.68     52.72      0.00
  141                 15.07    148.47     62.60      0.00
  143                  9.49    137.91     61.71      0.00
  145                 42.27    149.59     64.39      0.00
  147                 13.08    150.48     57.19      0.00
  149                 41.42    150.86     58.43      0.00
  151                221.05    154.67     52.50      0.00
  153                 67.58    154.77     38.38      0.00
  157                 79.24    154.49     61.26      0.00
  159                 63.22    151.06     62.86      0.00
  161                 24.17    148.74     62.72      0.00
  163                 14.41    148.27     62.08      0.00
  164                  0.00    148.27     62.08      0.00
  166                  3.98    148.27     65.11      0.00
  167                 22.28    146.37     65.59      0.00
  169                  0.00    146.38     65.59      0.00
  171                 60.19    145.29     64.69      0.00
  173                  0.00    145.26     64.68      0.00
  177                 89.00    145.01     59.37      0.00
  179                  0.00    145.01     59.37      0.00
  181                  0.00    145.01     59.37      0.00
  183                  0.00    145.00     58.06      0.00
  184                  0.00    143.53     55.26      0.00
  185                 39.24    144.15     55.53      0.00
  187                  0.00    144.77     57.31      0.00
  189                165.12    145.17     61.17      0.00
  191                125.31    144.92     51.96      0.00
  193                109.10    145.05     55.05      0.00
  195                  0.00    145.13     56.17      0.00
  197                 26.07    144.92     52.83      0.00
  199                182.56    139.71     61.40      0.00
  201                 68.25    138.93     60.15      0.00
  203               4582.65    138.76     59.26      0.00
  204                  0.00    144.55     53.53      0.00
  205                100.00    139.67     51.42      0.00
  206                  0.00    138.76     59.69      0.00
  207                106.17    138.94     56.30      0.00
  208                  0.00    138.55     53.10      0.00
  209                  1.33    138.20     60.75      0.00
  211                 13.27    138.08     56.80      0.00
  213                 21.33    138.00     56.76      0.00
  215                141.05    137.75     56.66      0.00
  217                 37.06    137.73     57.08      0.00
  219                 63.22    137.71     57.94      0.00
  225                 34.88    137.72     56.21      0.00
  229                 98.20    137.92     55.21      0.00
  231                 25.21    137.91     57.59      0.00
  237                 23.88    138.08     53.76      0.00
  239                 68.25    138.09     54.20      0.00
  241                  0.00    138.09     54.20      0.00
  243                  6.64    138.09     53.77      0.00
  247                107.68    138.11     52.04      0.00
  249                  0.00    138.11     52.04      0.00
  251                 36.96    138.14     46.86      0.00
  253                 83.42    138.45     44.39      0.00
  255                 61.80    138.52     48.32      0.00
  257                  0.00    151.00     58.06      0.00
  259                  0.00    150.53     54.39      0.00
  261                  0.00    148.83     64.49      0.00
  263                  0.00    148.65     64.41      0.00
  265                  0.00    146.98     63.69      0.00
  267                  0.00    145.18     53.81      0.00
  269                  0.00    145.65     63.11      0.00
  271                  0.00    145.09     60.27      0.00
  273                  0.00    139.67     57.05      0.00
  275                  0.00    138.94     55.87      0.00
  River           -13171.99    220.00      0.00      0.00  Reservoir
  Lake                 0.00    167.00      0.00      0.00  Reservoir
  1                   28.95    145.00      5.68      0.00  Tank
  2                 -454.91    139.84     10.11      0.00  Tank
  3                 1992.49    158.06     12.59      0.00  Tank
   
   
  Link Results at 0:05:00 hrs:
  ----------------------------------------------
                       Flow  Velocity  Headloss
  Link                  gpm       fps   /1000ft
  ----------------------------------------------
  20               -1992.49      0.08      0.00
  40                 -28.95      0.00      0.00
  50                 454.91      0.02      0.00
  60               13171.99      9.34      8.94
  101                  0.00      0.00      0.00
  103                153.17      0.24      0.02
  105               -443.79      1.26      0.56
  107                 12.99      0.04      0.00
  109                -50.63      0.08      0.00
  111               -404.67      1.15      0.47
  112                481.30      1.37      0.65
  113               -139.79      0.40      0.07
  114                113.33      0.72      0.32
  115                -70.61      0.45      0.13
  116                -57.08      0.16      0.01
  117                663.89      1.88      1.19
  119               -744.95      2.11      1.47
  120               1209.37      3.43      3.60
  121               1081.04      3.07      2.93
  122                379.57      2.42      3.04
  123              10031.50      4.55      1.80
  125              13171.99      5.98      2.98
  129               2697.22      1.91      0.54
  131               2401.33      1.70      0.44
  133              -1992.49      2.03      0.75
  135                381.83      0.27      0.01
  137                 65.41      0.10      0.00
  145                316.42      2.02      2.17
  147                307.41      1.96      2.06
  149               -620.27      3.96      7.54
  151               -610.78      3.90      7.33
  153                327.93      0.93      0.32
  155                370.20      1.05      0.40
  159               -383.29      1.09      0.43
  161               -424.70      2.71      3.74
  163               -158.54      0.45      0.08
  169                226.12      1.44      1.16
  171                487.21      1.38      0.67
  173               8065.44      3.66      1.20
  175               7986.20      3.62      1.18
  177               7922.98      3.60      1.16
  179               7633.09      3.46      1.08
  180                  3.98      0.01      0.00
  181                  3.98      0.01      0.00
  183               7391.45      3.35      1.02
  185                -22.28      0.14      0.02
  186                318.74      2.03      2.20
  187               6724.32      3.05      0.86
  189               4853.58      2.20      0.47
  191              -1810.55      1.28      0.26
  193              -1748.43      1.24      0.24
  195                194.84      0.55      0.12
  197                105.84      0.30      0.04
  199                 76.89      0.22      0.02
  201                -28.95      0.08      0.00
  202                555.32      3.54      6.15
  203                275.82      1.76      1.68
  204                555.32      1.58      0.85
  205                318.74      0.90      0.30
  207                198.93      0.56      0.13
  209                186.13      1.19      0.81
  211                644.85      1.83      1.12
  213                132.61      0.38      0.06
  215                 38.04      0.11      0.01
  217               -284.74      0.81      0.25
  219               -265.71      0.75      0.22
  221                265.71      1.70      1.57
  223                -26.82      0.08      0.00
  225                 -0.75      0.00      0.00
  229               4853.58      3.44      1.39
  231               4549.78      3.23      1.23
  233               4582.65      3.25      1.45
  235                121.24      0.34      0.05
  237                462.66      1.31      0.61
  238                369.27      1.05      0.40
  239                 12.77      0.04      0.00
  240                369.27      1.05      0.40
  241                369.27      1.05      0.40
  243                367.94      0.59      0.10
  245                333.10      0.53      0.08
  247                276.21      0.44      0.06
  249                135.16      0.22      0.02
  251                 63.22      0.13      0.01
  257                 34.88      0.10      0.01
  261                 35.56      0.23      0.04
  263                 25.21      0.07      0.00
  269                 21.57      0.06      0.00
  271                 87.85      0.56      0.20
  273                -90.16      0.26      0.03
  275                -55.24      0.16      0.01
  277                  6.64      0.02      0.00
  281                -61.88      0.25      0.04
  283               -103.17      0.29      0.04
  285                 23.73      0.07      0.00
  287               -193.29      0.79      0.29
  289                454.91      1.86      1.43
  291                 83.42      0.34      0.06
  293                116.41      0.74      0.34
  295                -79.44      0.23      0.02
  297                507.90      3.24      5.21
  299                244.06      1.56      1.34
  301                244.06      1.56      1.34
  303                263.84      1.68      1.55
  305                156.00      0.44      0.08
  307                419.84      1.19      0.51
  309                223.25      1.42      1.14
  311               -185.21      0.53      0.11
  313                512.14      1.45      0.73
  315              -1943.27      1.38      0.30
  317                113.89      0.73      0.33
  319                  7.35      0.02      0.00
  321               7614.70      3.46      1.08
  323               -101.12      0.29      0.04
  325                132.71      0.85      0.43
  329              13171.99      5.98      3.02
  330                  0.00      0.00      0.00
  333                 -0.00      0.00      0.00
  10                   0.00      0.00      0.00  Pump
  335              13171.99      0.00    -93.32  Pump
   
   
  Node Results at 0:10:00 hrs:
  --------------------------------------------------------
                     Demand      Head  Pressure  Chemical
  Node                  gpm        ft       psi      mg/L
  --------------------------------------------------------
  10                   0.00    144.00     -1.30      0.00
  15                 610.78    125.85     40.67      0.00
  20                   0.00    158.13     12.62      0.00
  35                1748.43    145.01     57.42      0.00
  40                   0.00    145.01      5.68      0.00
  50                   0.00    139.69     10.05      0.00
  60                   0.00    208.99     90.56      0.00
  601                  0.00    302.32    131.00      0.00
  61                   0.00    302.32    131.00      0.00
  101                290.62    144.00     44.19      0.00
  103                203.80    143.97     43.75      0.00
  105                207.12    145.43     50.66      0.00
  107                 83.60    145.43     53.48      0.00
  109                354.04    143.98     53.59      0.00
  111                217.17    144.93     58.46      0.00
  113                 30.62    145.04     61.98      0.00
  115                 79.71    145.69     57.06      0.00
  117                180.10    148.90     58.62      0.00
  119                269.48    157.02     67.17      0.00
  120                  0.00    154.38     66.89      0.00
  121                 63.69    160.62     70.46      0.00
  123                  0.00    165.09     66.77      0.00
  125                 69.77    160.12     64.61      0.00
  127                 27.02    158.71     44.51      0.00
  129                  0.00    158.70     46.67      0.00
  131                 65.41    158.67     66.15      0.00
  139                  9.01    152.73     52.74      0.00
  141                 15.07    148.51     62.62      0.00
  143                  9.49    137.95     61.72      0.00
  145                 42.27    149.63     64.40      0.00
  147                 13.08    150.52     57.20      0.00
  149                 41.42    150.90     58.45      0.00
  151                221.05    154.71     52.52      0.00
  153                 67.58    154.81     38.39      0.00
  157                 79.24    154.52     61.28      0.00
  159                 63.22    151.08     62.86      0.00
  161                 24.17    148.75     62.72      0.00
  163                 14.41    148.28     62.08      0.00
  164                  0.00    148.28     62.08      0.00
  166                  3.98    148.28     65.12      0.00
  167                 22.28    146.38     65.59      0.00
  169                  0.00    146.38     65.59      0.00
  171                 60.19    145.29     64.69      0.00
  173                  0.00    145.27     64.68      0.00
  177                 89.00    145.01     59.37      0.00
  179                  0.00    145.01     59.37      0.00
  181                  0.00    145.02     59.37      0.00
  183                  0.00    145.01     58.07      0.00
  184                  0.00    143.53     55.26      0.00
  185                 39.24    144.15     55.53      0.00
  187                  0.00    144.77     57.31      0.00
  189                165.12    145.18     61.17      0.00
  191                125.31    144.93     51.97      0.00
  193                109.10    145.06     55.05      0.00
  195                  0.00    145.14     56.17      0.00
  197                 26.07    144.93     52.83      0.00
  199                182.56    139.69     61.39      0.00
  201                 68.25    138.91     60.15      0.00
  203               4582.65    138.74     59.25      0.00
  204                  0.00    144.55     53.54      0.00
  205                100.00    139.65     51.41      0.00
  206                  0.00    138.73     59.68      0.00
  207                106.17    138.92     56.29      0.00
  208                  0.00    138.51     53.08      0.00
  209                  1.33    138.14     60.72      0.00
  211                 13.27    138.02     56.77      0.00
  213                 21.33    137.93     56.73      0.00
  215                141.05    137.69     56.63      0.00
  217                 37.06    137.66     57.05      0.00
  219                 63.22    137.65     57.91      0.00
  225                 34.88    137.65     56.18      0.00
  229                 98.20    137.85     55.18      0.00
  231                 25.21    137.84     57.56      0.00
  237                 23.88    138.01     53.73      0.00
  239                 68.25    138.02     54.17      0.00
  241                  0.00    138.02     54.17      0.00
  243                  6.64    138.02     53.74      0.00
  247                107.68    138.03     52.01      0.00
  249                  0.00    138.03     52.01      0.00
  251                 36.96    138.06     46.82      0.00
  253                 83.42    138.35     44.35      0.00
  255                 61.80    138.42     48.28      0.00
  257                  0.00    151.02     58.07      0.00
  259                  0.00    150.55     54.40      0.00
  261                  0.00    148.85     64.49      0.00
  263                  0.00    148.67     64.42      0.00
  265                  0.00    146.99     63.69      0.00
  267                  0.00    145.19     53.81      0.00
  269                  0.00    145.65     63.11      0.00
  271                  0.00    145.09     60.27      0.00
  273                  0.00    139.65     57.05      0.00
  275                  0.00    138.92     55.86      0.00
  River           -13170.73    220.00      0.00      0.00  Reservoir
  Lake                 0.00    167.00      0.00      0.00  Reservoir
  1                   30.11    145.01      5.68      0.00  Tank
  2                 -444.66    139.69     10.05      0.00  Tank
  3                 1979.81    158.13     12.62      0.00  Tank
   
   
  Link Results at 0:10:00 hrs:
  ----------------------------------------------
                       Flow  Velocity  Headloss
  Link                  gpm       fps   /1000ft
  ----------------------------------------------
  20               -1979.81      0.08      0.00
  40                 -30.11      0.00      0.00
  50                 444.66      0.02      0.00
  60               13170.73      9.34      8.94
  101                  0.00      0.00      0.00
  103                153.54      0.25      0.02
  105               -444.16      1.26      0.56
  107                 13.20      0.04      0.00
  109                -50.26      0.08      0.00
  111               -404.30      1.15      0.47
  112                482.16      1.37      0.66
  113               -139.65      0.40      0.07
  114                113.58      0.72      0.33
  115                -70.40      0.45      0.13
  116                -56.68      0.16      0.01
  117                664.48      1.88      1.19
  119               -745.85      2.12      1.47
  120               1210.48      3.43      3.61
  121               1082.06      3.07      2.93
  122                379.95      2.43      3.04
  123              10042.12      4.56      1.80
  125              13170.73      5.98      2.98
  129               2684.96      1.90      0.54
  131               2388.89      1.69      0.43
  133              -1979.81      2.02      0.75
  135                382.06      0.27      0.01
  137                 65.41      0.10      0.00
  145                316.66      2.02      2.17
  147                307.64      1.96      2.06
  149               -620.27      3.96      7.54
  151               -610.78      3.90      7.33
  153                327.69      0.93      0.32
  155                369.97      1.05      0.40
  159               -383.05      1.09      0.43
  161               -424.47      2.71      3.74
  163               -158.72      0.45      0.08
  169                226.30      1.44      1.17
  171                486.80      1.38      0.67
  173               8075.36      3.67      1.20
  175               7996.12      3.63      1.18
  177               7932.90      3.60      1.16
  179               7642.82      3.47      1.09
  180                  3.98      0.01      0.00
  181                  3.98      0.01      0.00
  183               7401.03      3.36      1.02
  185                -22.28      0.14      0.02
  186                319.65      2.04      2.21
  187               6733.52      3.06      0.86
  189               4862.62      2.21      0.47
  191              -1810.70      1.28      0.26
  193              -1748.43      1.24      0.24
  195                195.24      0.55      0.12
  197                106.24      0.30      0.04
  199                 76.13      0.22      0.02
  201                -30.11      0.09      0.00
  202                556.53      3.55      6.17
  203                276.12      1.76      1.68
  204                556.53      1.58      0.86
  205                319.65      0.91      0.31
  207                200.00      0.57      0.13
  209                186.18      1.19      0.81
  211                645.24      1.83      1.13
  213                133.47      0.38      0.06
  215                 39.02      0.11      0.01
  217               -284.50      0.81      0.25
  219               -265.91      0.75      0.22
  221                265.91      1.70      1.57
  223                -25.73      0.07      0.00
  225                  0.34      0.00      0.00
  229               4862.62      3.45      1.39
  231               4557.90      3.23      1.24
  233               4582.65      3.25      1.45
  235                122.16      0.35      0.05
  237                464.49      1.32      0.61
  238                379.52      1.08      0.42
  239                 21.20      0.06      0.00
  240                379.52      1.08      0.42
  241                379.52      1.08      0.42
  243                378.19      0.60      0.10
  245                333.63      0.53      0.08
  247                276.21      0.44      0.06
  249                135.16      0.22      0.02
  251                 63.22      0.13      0.01
  257                 34.88      0.10      0.01
  261                 36.09      0.23      0.04
  263                 25.21      0.07      0.00
  269                 31.30      0.09      0.00
  271                 87.32      0.56      0.20
  273                -79.91      0.23      0.02
  275                -51.40      0.15      0.01
  277                  6.64      0.02      0.00
  281                -58.04      0.24      0.03
  283                -96.76      0.27      0.03
  285                 21.08      0.06      0.00
  287               -186.81      0.76      0.28
  289                444.66      1.82      1.37
  291                 83.42      0.34      0.06
  293                112.64      0.72      0.32
  295                -75.68      0.21      0.02
  297                508.37      3.24      5.22
  299                244.29      1.56      1.34
  301                244.29      1.56      1.34
  303                264.09      1.69      1.55
  305                156.11      0.44      0.08
  307                420.20      1.19      0.51
  309                223.40      1.43      1.14
  311               -184.38      0.52      0.11
  313                512.27      1.45      0.73
  315              -1943.67      1.38      0.30
  317                114.20      0.73      0.33
  319                  7.96      0.02      0.00
  321               7624.43      3.46      1.08
  323                -93.00      0.26      0.03
  325                132.96      0.85      0.44
  329              13170.73      5.98      3.02
  330                  0.00      0.00      0.00
  333                 -0.00      0.00      0.00
  10                   0.00      0.00      0.00  Pump
  335              13170.73      0.00    -93.33  Pump
   
   
  Node Results at 0:15:00 hrs:
  --------------------------------------------------------
                     Demand      Head  Pressure  Chemical
  Node                  gpm        ft       psi      mg/L
  --------------------------------------------------------
  10                   0.00    144.01     -1.30      0.00
  15                 610.78    125.90     40.69      0.00
  20                   0.00    158.19     12.65      0.00
  35                1748.43    145.01     57.42      0.00
  40                   0.00    145.01      5.68      0.00
  50                   0.00    139.54      9.98      0.00
  60                   0.00    208.99     90.56      0.00
  601                  0.00    302.33    131.00      0.00
  61                   0.00    302.33    131.00      0.00
  101                290.62    144.01     44.20      0.00
  103                203.80    143.98     43.75      0.00
  105                207.12    145.44     50.67      0.00
  107                 83.60    145.44     53.49      0.00
  109                354.04    143.99     53.59      0.00
  111                217.17    144.93     58.47      0.00
  113                 30.62    145.05     61.98      0.00
  115                 79.71    145.70     57.06      0.00
  117                180.10    148.92     58.63      0.00
  119                269.48    157.05     67.18      0.00
  120                  0.00    154.41     66.91      0.00
  121                 63.69    160.66     70.48      0.00
  123                  0.00    165.12     66.78      0.00
  125                 69.77    160.16     64.63      0.00
  127                 27.02    158.77     44.53      0.00
  129                  0.00    158.75     46.69      0.00
  131                 65.41    158.73     66.18      0.00
  139                  9.01    152.78     52.77      0.00
  141                 15.07    148.55     62.63      0.00
  143                  9.49    137.99     61.74      0.00
  145                 42.27    149.67     64.42      0.00
  147                 13.08    150.56     57.22      0.00
  149                 41.42    150.93     58.47      0.00
  151                221.05    154.74     52.53      0.00
  153                 67.58    154.84     38.41      0.00
  157                 79.24    154.54     61.29      0.00
  159                 63.22    151.10     62.87      0.00
  161                 24.17    148.76     62.73      0.00
  163                 14.41    148.30     62.09      0.00
  164                  0.00    148.30     62.09      0.00
  166                  3.98    148.30     65.12      0.00
  167                 22.28    146.39     65.60      0.00
  169                  0.00    146.39     65.60      0.00
  171                 60.19    145.29     64.69      0.00
  173                  0.00    145.27     64.68      0.00
  177                 89.00    145.02     59.37      0.00
  179                  0.00    145.02     59.37      0.00
  181                  0.00    145.02     59.37      0.00
  183                  0.00    145.01     58.07      0.00
  184                  0.00    143.53     55.26      0.00
  185                 39.24    144.15     55.53      0.00
  187                  0.00    144.78     57.32      0.00
  189                165.12    145.19     61.18      0.00
  191                125.31    144.94     51.97      0.00
  193                109.10    145.07     55.06      0.00
  195                  0.00    145.14     56.17      0.00
  197                 26.07    144.93     52.83      0.00
  199                182.56    139.68     61.39      0.00
  201                 68.25    138.89     60.14      0.00
  203               4582.65    138.72     59.24      0.00
  204                  0.00    144.56     53.54      0.00
  205                100.00    139.64     51.41      0.00
  206                  0.00    138.70     59.66      0.00
  207                106.17    138.90     56.28      0.00
  208                  0.00    138.47     53.07      0.00
  209                  1.33    138.08     60.70      0.00
  211                 13.27    137.95     56.74      0.00
  213                 21.33    137.87     56.71      0.00
  215                141.05    137.62     56.60      0.00
  217                 37.06    137.60     57.02      0.00
  219                 63.22    137.58     57.88      0.00
  225                 34.88    137.59     56.15      0.00
  229                 98.20    137.78     55.15      0.00
  231                 25.21    137.77     57.53      0.00
  237                 23.88    137.94     53.70      0.00
  239                 68.25    137.95     54.14      0.00
  241                  0.00    137.95     54.14      0.00
  243                  6.64    137.95     53.71      0.00
  247                107.68    137.96     51.98      0.00
  249                  0.00    137.96     51.98      0.00
  251                 36.96    137.99     46.79      0.00
  253                 83.42    138.25     44.30      0.00
  255                 61.80    138.32     48.23      0.00
  257                  0.00    151.04     58.08      0.00
  259                  0.00    150.57     54.41      0.00
  261                  0.00    148.86     64.50      0.00
  263                  0.00    148.68     64.43      0.00
  265                  0.00    146.99     63.69      0.00
  267                  0.00    145.19     53.81      0.00
  269                  0.00    145.66     63.11      0.00
  271                  0.00    145.10     60.27      0.00
  273                  0.00    139.64     57.04      0.00
  275                  0.00    138.90     55.85      0.00
  River           -13169.46    220.00      0.00      0.00  Reservoir
  Lake                 0.00    167.00      0.00      0.00  Reservoir
  1                   31.41    145.01      5.68      0.00  Tank
  2                 -434.66    139.54      9.98      0.00  Tank
  3                 1967.24    158.19     12.65      0.00  Tank
   
   
  Link Results at 0:15:00 hrs:
  ----------------------------------------------
                       Flow  Velocity  Headloss
  Link                  gpm       fps   /1000ft
  ----------------------------------------------
  20               -1967.24      0.08      0.00
  40                 -31.41      0.00      0.00
  50                 434.66      0.02      0.00
  60               13169.46      9.34      8.94
  101                  0.00      0.00      0.00
  103                153.90      0.25      0.02
  105               -444.53      1.26      0.56
  107                 13.42      0.04      0.00
  109                -49.89      0.08      0.00
  111               -403.93      1.15      0.47
  112                483.01      1.37      0.66
  113               -139.51      0.40      0.07
  114                113.84      0.73      0.33
  115                -70.18      0.45      0.13
  116                -56.28      0.16      0.01
  117                665.06      1.89      1.19
  119               -746.75      2.12      1.48
  120               1211.58      3.44      3.62
  121               1083.06      3.07      2.94
  122                380.33      2.43      3.05
  123              10052.65      4.56      1.80
  125              13169.46      5.98      2.98
  129               2672.80      1.90      0.53
  131               2376.56      1.69      0.43
  133              -1967.24      2.01      0.74
  135                382.30      0.27      0.01
  137                 65.41      0.10      0.00
  145                316.89      2.02      2.17
  147                307.88      1.97      2.06
  149               -620.27      3.96      7.54
  151               -610.78      3.90      7.33
  153                327.46      0.93      0.32
  155                369.73      1.05      0.40
  159               -382.81      1.09      0.43
  161               -424.23      2.71      3.73
  163               -158.89      0.45      0.08
  169                226.47      1.45      1.17
  171                486.40      1.38      0.67
  173               8085.19      3.67      1.21
  175               8005.95      3.63      1.18
  177               7942.73      3.61      1.17
  179               7652.45      3.47      1.09
  180                  3.98      0.01      0.00
  181                  3.98      0.01      0.00
  183               7410.52      3.36      1.03
  185                -22.28      0.14      0.02
  186                320.54      2.05      2.22
  187               6742.61      3.06      0.86
  189               4871.44      2.21      0.47
  191              -1810.98      1.28      0.26
  193              -1748.43      1.24      0.24
  195                195.77      0.56      0.12
  197                106.77      0.30      0.04
  199                 75.35      0.21      0.02
  201                -31.41      0.09      0.00
  202                557.71      3.56      6.19
  203                276.42      1.76      1.69
  204                557.71      1.58      0.86
  205                320.54      0.91      0.31
  207                201.06      0.57      0.13
  209                186.23      1.19      0.81
  211                645.63      1.83      1.13
  213                134.31      0.38      0.06
  215                 40.00      0.11      0.01
  217               -284.27      0.81      0.25
  219               -266.11      0.75      0.22
  221                266.11      1.70      1.57
  223                -24.65      0.07      0.00
  225                  1.42      0.00      0.00
  229               4871.44      3.45      1.40
  231               4565.71      3.24      1.24
  233               4582.65      3.25      1.45
  235                123.17      0.35      0.05
  237                466.40      1.32      0.62
  238                389.52      1.10      0.44
  239                 29.29      0.08      0.00
  240                389.52      1.10      0.44
  241                389.52      1.10      0.44
  243                388.19      0.62      0.11
  245                334.28      0.53      0.08
  247                276.21      0.44      0.06
  249                135.16      0.22      0.02
  251                 63.22      0.13      0.01
  257                 34.88      0.10      0.01
  261                 36.74      0.23      0.04
  263                 25.21      0.07      0.00
  269                 40.65      0.12      0.01
  271                 86.67      0.55      0.20
  273                -69.91      0.20      0.02
  275                -47.66      0.14      0.01
  277                  6.64      0.02      0.00
  281                -54.30      0.22      0.03
  283                -90.50      0.26      0.03
  285                 18.50      0.05      0.00
  287               -180.48      0.74      0.26
  289                434.66      1.78      1.32
  291                 83.42      0.34      0.06
  293                108.97      0.70      0.30
  295                -72.00      0.20      0.02
  297                508.84      3.25      5.23
  299                244.51      1.56      1.35
  301                244.51      1.56      1.35
  303                264.33      1.69      1.55
  305                156.22      0.44      0.08
  307                420.55      1.19      0.51
  309                223.54      1.43      1.14
  311               -183.54      0.52      0.11
  313                512.41      1.45      0.73
  315              -1944.20      1.38      0.30
  317                114.48      0.73      0.33
  319                  8.69      0.02      0.00
  321               7634.05      3.46      1.08
  323                -85.19      0.24      0.03
  325                133.22      0.85      0.44
  329              13169.46      5.98      3.02
  330                  0.00      0.00      0.00
  333                 -0.00      0.00      0.00
  10                   0.00      0.00      0.00  Pump
  335              13169.47      0.00    -93.34  Pump
   
   
  Node Results at 0:20:00 hrs:
  --------------------------------------------------------
                     Demand      Head  Pressure  Chemical
  Node                  gpm        ft       psi      mg/L
  --------------------------------------------------------
  10                   0.00    144.02     -1.29      0.00
  15                 610.78    125.94     40.70      0.00
  20                   0.00    158.25     12.67      0.00
  35                1748.43    145.02     57.42      0.00
  40                   0.00    145.01      5.68      0.00
  50                   0.00    139.39      9.92      0.00
  60                   0.00    208.99     90.56      0.00
  601                  0.00    302.35    131.01      0.00
  61                   0.00    302.35    131.01      0.00
  101                290.62    144.02     44.20      0.00
  103                203.80    143.99     43.76      0.00
  105                207.12    145.45     50.68      0.00
  107                 83.60    145.45     53.49      0.00
  109                354.04    144.00     53.60      0.00
  111                217.17    144.94     58.47      0.00
  113                 30.62    145.05     61.98      0.00
  115                 79.71    145.71     57.07      0.00
  117                180.10    148.93     58.64      0.00
  119                269.48    157.08     67.20      0.00
  120                  0.00    154.44     66.92      0.00
  121                 63.69    160.70     70.50      0.00
  123                  0.00    165.16     66.80      0.00
  125                 69.77    160.20     64.65      0.00
  127                 27.02    158.82     44.55      0.00
  129                  0.00    158.81     46.71      0.00
  131                 65.41    158.78     66.20      0.00
  139                  9.01    152.82     52.79      0.00
  141                 15.07    148.59     62.65      0.00
  143                  9.49    138.03     61.76      0.00
  145                 42.27    149.71     64.44      0.00
  147                 13.08    150.60     57.24      0.00
  149                 41.42    150.97     58.48      0.00
  151                221.05    154.78     52.55      0.00
  153                 67.58    154.87     38.42      0.00
  157                 79.24    154.57     61.30      0.00
  159                 63.22    151.11     62.88      0.00
  161                 24.17    148.78     62.73      0.00
  163                 14.41    148.31     62.09      0.00
  164                  0.00    148.31     62.09      0.00
  166                  3.98    148.31     65.13      0.00
  167                 22.28    146.39     65.60      0.00
  169                  0.00    146.40     65.60      0.00
  171                 60.19    145.30     64.69      0.00
  173                  0.00    145.28     64.68      0.00
  177                 89.00    145.02     59.37      0.00
  179                  0.00    145.02     59.37      0.00
  181                  0.00    145.02     59.37      0.00
  183                  0.00    145.01     58.07      0.00
  184                  0.00    143.53     55.26      0.00
  185                 39.24    144.15     55.53      0.00
  187                  0.00    144.79     57.32      0.00
  189                165.12    145.19     61.18      0.00
  191                125.31    144.95     51.97      0.00
  193                109.10    145.07     55.06      0.00
  195                  0.00    145.15     56.18      0.00
  197                 26.07    144.94     52.84      0.00
  199                182.56    139.66     61.38      0.00
  201                 68.25    138.88     60.13      0.00
  203               4582.65    138.70     59.23      0.00
  204                  0.00    144.56     53.54      0.00
  205                100.00    139.62     51.40      0.00
  206                  0.00    138.67     59.65      0.00
  207                106.17    138.88     56.28      0.00
  208                  0.00    138.43     53.05      0.00
  209                  1.33    138.02     60.67      0.00
  211                 13.27    137.88     56.71      0.00
  213                 21.33    137.80     56.68      0.00
  215                141.05    137.56     56.57      0.00
  217                 37.06    137.53     56.99      0.00
  219                 63.22    137.52     57.85      0.00
  225                 34.88    137.52     56.12      0.00
  229                 98.20    137.71     55.12      0.00
  231                 25.21    137.71     57.50      0.00
  237                 23.88    137.86     53.67      0.00
  239                 68.25    137.87     54.11      0.00
  241                  0.00    137.87     54.11      0.00
  243                  6.64    137.87     53.67      0.00
  247                107.68    137.88     51.95      0.00
  249                  0.00    137.88     51.95      0.00
  251                 36.96    137.91     46.76      0.00
  253                 83.42    138.15     44.26      0.00
  255                 61.80    138.22     48.19      0.00
  257                  0.00    151.06     58.09      0.00
  259                  0.00    150.59     54.42      0.00
  261                  0.00    148.88     64.51      0.00
  263                  0.00    148.70     64.43      0.00
  265                  0.00    147.00     63.70      0.00
  267                  0.00    145.20     53.82      0.00
  269                  0.00    145.67     63.12      0.00
  271                  0.00    145.10     60.27      0.00
  273                  0.00    139.62     57.03      0.00
  275                  0.00    138.88     55.85      0.00
  River           -13168.21    220.00      0.00      0.00  Reservoir
  Lake                 0.00    167.00      0.00      0.00  Reservoir
  1                   32.83    145.01      5.68      0.00  Tank
  2                 -424.88    139.39      9.92      0.00  Tank
  3                 1954.79    158.25     12.67      0.00  Tank
   
   
  Link Results at 0:20:00 hrs:
  ----------------------------------------------
                       Flow  Velocity  Headloss
  Link                  gpm       fps   /1000ft
  ----------------------------------------------
  20               -1954.79      0.08      0.00
  40                 -32.83      0.00      0.00
  50                 424.88      0.02      0.00
  60               13168.21      9.34      8.94
  101                  0.00      0.00      0.00
  103                154.27      0.25      0.02
  105               -444.89      1.26      0.57
  107                 13.63      0.04      0.00
  109                -49.53      0.08      0.00
  111               -403.57      1.14      0.47
  112                483.86      1.37      0.66
  113               -139.35      0.40      0.07
  114                114.09      0.73      0.33
  115                -69.97      0.45      0.13
  116                -55.88      0.16      0.01
  117                665.64      1.89      1.19
  119               -747.63      2.12      1.48
  120               1212.67      3.44      3.62
  121               1084.06      3.08      2.94
  122                380.70      2.43      3.05
  123              10063.07      4.57      1.81
  125              13168.21      5.98      2.98
  129               2660.75      1.89      0.53
  131               2364.34      1.68      0.43
  133              -1954.79      2.00      0.73
  135                382.53      0.27      0.01
  137                 65.41      0.10      0.00
  145                317.12      2.02      2.18
  147                308.11      1.97      2.06
  149               -620.27      3.96      7.54
  151               -610.78      3.90      7.33
  153                327.23      0.93      0.32
  155                369.50      1.05      0.40
  159               -382.58      1.09      0.43
  161               -424.00      2.71      3.73
  163               -159.06      0.45      0.08
  169                226.64      1.45      1.17
  171                486.00      1.38      0.67
  173               8094.92      3.67      1.21
  175               8015.69      3.64      1.19
  177               7952.47      3.61      1.17
  179               7661.98      3.48      1.09
  180                  3.98      0.01      0.00
  181                  3.98      0.01      0.00
  183               7419.91      3.37      1.03
  185                -22.28      0.14      0.02
  186                321.41      2.05      2.23
  187               6751.61      3.06      0.86
  189               4880.06      2.21      0.47
  191              -1811.36      1.28      0.26
  193              -1748.43      1.24      0.24
  195                196.40      0.56      0.12
  197                107.40      0.30      0.04
  199                 74.57      0.21      0.02
  201                -32.83      0.09      0.00
  202                558.87      3.57      6.22
  203                276.70      1.77      1.69
  204                558.87      1.59      0.86
  205                321.41      0.91      0.31
  207                202.13      0.57      0.13
  209                186.27      1.19      0.81
  211                646.02      1.83      1.13
  213                135.14      0.38      0.06
  215                 40.97      0.12      0.01
  217               -284.04      0.81      0.25
  219               -266.31      0.76      0.22
  221                266.31      1.70      1.58
  223                -23.60      0.07      0.00
  225                  2.48      0.01      0.00
  229               4880.06      3.46      1.40
  231               4573.25      3.24      1.24
  233               4582.65      3.25      1.45
  235                124.25      0.35      0.05
  237                468.39      1.33      0.62
  238                399.30      1.13      0.46
  239                 37.08      0.11      0.01
  240                399.30      1.13      0.46
  241                399.30      1.13      0.46
  243                397.97      0.64      0.11
  245                335.04      0.53      0.08
  247                276.21      0.44      0.06
  249                135.16      0.22      0.02
  251                 63.22      0.13      0.01
  257                 34.88      0.10      0.01
  261                 37.50      0.24      0.04
  263                 25.21      0.07      0.00
  269                 49.66      0.14      0.01
  271                 85.91      0.55      0.19
  273                -60.13      0.17      0.01
  275                -44.00      0.12      0.01
  277                  6.64      0.02      0.00
  281                -50.64      0.21      0.02
  283                -84.39      0.24      0.03
  285                 15.98      0.05      0.00
  287               -174.29      0.71      0.24
  289                424.88      1.74      1.26
  291                 83.42      0.34      0.06
  293                105.38      0.67      0.28
  295                -68.41      0.19      0.02
  297                509.31      3.25      5.24
  299                244.73      1.56      1.35
  301                244.73      1.56      1.35
  303                264.57      1.69      1.56
  305                156.33      0.44      0.08
  307                420.91      1.19      0.51
  309                223.68      1.43      1.14
  311               -182.71      0.52      0.11
  313                512.55      1.45      0.74
  315              -1944.83      1.38      0.30
  317                114.73      0.73      0.33
  319                  9.52      0.03      0.00
  321               7643.59      3.47      1.09
  323                -77.66      0.22      0.02
  325                133.47      0.85      0.44
  329              13168.21      5.98      3.02
  330                  0.00      0.00      0.00
  333                 -0.00      0.00      0.00
  10                   0.00      0.00      0.00  Pump
  335              13168.21      0.00    -93.35  Pump
   
   
  Node Results at 0:25:00 hrs:
  --------------------------------------------------------
                     Demand      Head  Pressure  Chemical
  Node                  gpm        ft       psi      mg/L
  --------------------------------------------------------
  10                   0.00    144.03     -1.29      0.00
  15                 610.78    125.98     40.72      0.00
  20                   0.00    158.31     12.70      0.00
  35                1748.43    145.02     57.42      0.00
  40                   0.00    145.02      5.68      0.00
  50                   0.00    139.24      9.85      0.00
  60                   0.00    209.00     90.56      0.00
  601                  0.00    302.36    131.01      0.00
  61                   0.00    302.36    131.01      0.00
  101                290.62    144.03     44.21      0.00
  103                203.80    144.00     43.76      0.00
  105                207.12    145.46     50.68      0.00
  107                 83.60    145.46     53.50      0.00
  109                354.04    144.01     53.60      0.00
  111                217.17    144.95     58.47      0.00
  113                 30.62    145.06     61.99      0.00
  115                 79.71    145.72     57.07      0.00
  117                180.10    148.95     58.65      0.00
  119                269.48    157.11     67.21      0.00
  120                  0.00    154.46     66.93      0.00
  121                 63.69    160.74     70.51      0.00
  123                  0.00    165.20     66.81      0.00
  125                 69.77    160.25     64.67      0.00
  127                 27.02    158.88     44.58      0.00
  129                  0.00    158.87     46.74      0.00
  131                 65.41    158.84     66.23      0.00
  139                  9.01    152.87     52.81      0.00
  141                 15.07    148.63     62.67      0.00
  143                  9.49    138.07     61.78      0.00
  145                 42.27    149.75     64.46      0.00
  147                 13.08    150.64     57.25      0.00
  149                 41.42    151.01     58.50      0.00
  151                221.05    154.81     52.56      0.00
  153                 67.58    154.91     38.44      0.00
  157                 79.24    154.59     61.31      0.00
  159                 63.22    151.13     62.89      0.00
  161                 24.17    148.79     62.74      0.00
  163                 14.41    148.32     62.10      0.00
  164                  0.00    148.32     62.10      0.00
  166                  3.98    148.32     65.13      0.00
  167                 22.28    146.40     65.60      0.00
  169                  0.00    146.40     65.60      0.00
  171                 60.19    145.30     64.69      0.00
  173                  0.00    145.28     64.68      0.00
  177                 89.00    145.02     59.37      0.00
  179                  0.00    145.02     59.37      0.00
  181                  0.00    145.03     59.37      0.00
  183                  0.00    145.02     58.07      0.00
  184                  0.00    143.53     55.26      0.00
  185                 39.24    144.16     55.53      0.00
  187                  0.00    144.79     57.32      0.00
  189                165.12    145.20     61.18      0.00
  191                125.31    144.95     51.98      0.00
  193                109.10    145.08     55.06      0.00
  195                  0.00    145.16     56.18      0.00
  197                 26.07    144.95     52.84      0.00
  199                182.56    139.65     61.38      0.00
  201                 68.25    138.86     60.13      0.00
  203               4582.65    138.69     59.23      0.00
  204                  0.00    144.57     53.54      0.00
  205                100.00    139.61     51.39      0.00
  206                  0.00    138.64     59.64      0.00
  207                106.17    138.86     56.27      0.00
  208                  0.00    138.39     53.03      0.00
  209                  1.33    137.96     60.65      0.00
[...]
  219                 73.55    138.09     58.10      0.00
  225                 40.58    138.10     56.37      0.00
  229                114.24    138.26     55.36      0.00
  231                 29.33    138.25     57.74      0.00
  237                 27.79    138.40     53.90      0.00
  239                 79.41    138.40     54.34      0.00
  241                  0.00    138.40     54.34      0.00
  243                  7.73    138.40     53.90      0.00
  247                125.28    138.40     52.17      0.00
  249                  0.00    138.40     52.17      0.00
  251                 43.00    138.41     46.97      0.00
  253                 97.05    138.50     44.41      0.00
  255                 71.89    138.59     48.35      0.00
  257                  0.00    151.68     58.36      0.00
  259                  0.00    151.21     54.69      0.00
  261                  0.00    149.51     64.78      0.00
  263                  0.00    149.32     64.70      0.00
  265                  0.00    148.83     64.49      0.00
  267                  0.00    147.02     54.61      0.00
  269                  0.00    147.61     63.96      0.00
  271                  0.00    147.27     61.21      0.00
  273                  0.00    141.48     57.84      0.00
  275                  0.00    140.78     56.67      0.00
  River           -13200.62    220.00      0.00      0.00  Reservoir
  Lake                 0.00    167.00      0.00      0.00  Reservoir
  1                 -504.92    148.08      7.01      0.00  Tank
  2                 -373.89    139.51      9.97      0.00  Tank
  3                  424.05    160.68     13.73      0.00  Tank
   
   
  Link Results at 23:55:00 hrs:
  ----------------------------------------------
                       Flow  Velocity  Headloss
  Link                  gpm       fps   /1000ft
  ----------------------------------------------
  20                -424.05      0.02      0.00
  40                 504.92      0.02      0.00
  50                 373.89      0.02      0.00
  60               13200.62      9.36      8.98
  101                  0.00      0.00      0.00
  103                117.44      0.19      0.01
  105               -455.55      1.29      0.59
  107                -21.20      0.06      0.00
  109               -119.65      0.19      0.01
  111               -531.55      1.51      0.79
  112                417.94      1.19      0.50
  113               -226.94      0.64      0.16
  114                 76.30      0.49      0.16
  115               -118.46      0.76      0.35
  116               -186.26      0.53      0.11
  117                675.31      1.92      1.23
  119               -705.43      2.00      1.33
  120               1220.44      3.46      3.67
  121               1081.59      3.07      2.93
  122                369.82      2.36      2.89
  123               9511.24      4.32      1.63
  125              11029.48      5.01      2.14
  129               1074.31      0.76      0.10
  131                784.02      0.56      0.06
  133               -424.05      0.43      0.04
  135                328.54      0.23      0.01
  137                 76.10      0.12      0.01
  145                252.44      1.61      1.43
  147                241.96      1.54      1.32
  149               -369.78      2.36      2.89
  151               -358.74      2.29      2.74
  153                145.35      0.41      0.07
  155                194.53      0.55      0.12
  159               -209.75      0.60      0.14
  161               -257.94      1.65      1.49
  163               -130.50      0.37      0.06
  169                209.12      1.33      1.01
  171                384.61      1.09      0.43
  173               7592.67      3.45      1.07
  175               7500.49      3.40      1.05
  177               7426.94      3.37      1.03
  179               7127.61      3.24      0.95
  180                  4.63      0.01      0.00
  181                  4.63      0.01      0.00
  183               6882.09      3.12      0.89
  185                -25.92      0.17      0.02
  186                268.23      1.71      1.60
  187               6227.46      2.83      0.74
  189               4952.84      2.25      0.49
  191              -1204.59      0.85      0.12
  193              -1309.62      0.93      0.14
  195                 -2.99      0.01      0.00
  197               -106.53      0.30      0.04
  199                398.39      1.13      0.46
  201                504.92      1.43      0.71
  202                554.01      3.54      6.12
  203                331.43      2.12      2.36
  204                554.01      1.57      0.85
  205                268.23      0.76      0.22
  207                -66.95      0.19      0.02
  209                255.38      1.63      1.46
  211                628.71      1.78      1.07
  213                 12.85      0.04      0.00
  215               -146.14      0.41      0.07
  217               -328.28      0.93      0.32
  219               -271.20      0.77      0.23
  221                271.20      1.73      1.63
  223               -169.65      0.48      0.09
  225               -139.32      0.40      0.07
  229               4952.84      3.51      1.44
  231               4555.92      3.23      1.24
  233               4390.24      3.11      1.34
  235                184.53      0.52      0.11
  237                510.21      1.45      0.73
  238                584.96      1.66      0.94
  239                198.26      0.56      0.13
  240                584.96      1.66      0.94
  241                584.96      1.66      0.94
  243                583.41      0.93      0.23
  245                405.40      0.65      0.12
  247                321.34      0.51      0.08
  249                157.25      0.25      0.02
  251                 73.55      0.15      0.01
  257                 40.58      0.12      0.01
  261                 59.24      0.38      0.10
  263                 29.33      0.08      0.00
  269                162.58      0.46      0.09
  271                 84.34      0.54      0.19
  273                 50.46      0.14      0.01
  275                 -6.07      0.02      0.00
  277                  7.73      0.02      0.00
  281                -13.79      0.06      0.00
  283                -22.88      0.06      0.00
  285                -12.33      0.03      0.00
  287               -126.74      0.52      0.13
  289                373.89      1.53      1.00
  291                 97.05      0.40      0.08
  293                 78.22      0.50      0.16
  295                -35.21      0.10      0.01
  297                508.67      3.25      5.22
  299                244.68      1.56      1.35
  301                244.68      1.56      1.35
  303                264.00      1.69      1.55
  305                166.64      0.47      0.09
  307                430.63      1.22      0.53
  309                224.13      1.43      1.14
  311               -370.27      1.05      0.40
  313                526.67      1.49      0.77
  315              -1306.63      0.93      0.14
  317                111.99      0.71      0.32
  319                 72.55      0.21      0.02
  321               7106.22      3.23      0.95
  323                 86.28      0.24      0.03
  325                102.04      0.65      0.27
  329              13200.62      5.99      3.03
  330                  0.00      0.00      0.00
  333                 -0.00      0.00      0.00
  10                   0.00      0.00      0.00  Pump
  335              13200.62      0.00    -93.07  Pump
   
   
  Node Results at 24:00:00 hrs:
  --------------------------------------------------------
                     Demand      Head  Pressure  Chemical
  Node                  gpm        ft       psi      mg/L
  --------------------------------------------------------
  10                   0.00    146.72     -0.12      0.00
  15                 610.78    128.42     41.78      0.00
  20                   0.00    160.69     13.73      0.00
  35                1748.43    147.81     58.63      0.00
  40                   0.00    148.02      6.99      0.00
  50                   0.00    139.38      9.91      0.00
  60                   0.00    209.12     90.61      0.00
  601                  0.00    303.19    131.37      0.00
  61                   0.00    303.19    131.37      0.00
  101                290.62    146.72     45.37      0.00
  103                203.80    146.69     44.93      0.00
  105                207.12    148.14     51.84      0.00
  107                 83.60    148.13     54.65      0.00
  109                354.04    146.70     54.77      0.00
  111                217.17    147.66     59.65      0.00
  113                 30.62    147.77     63.16      0.00
  115                 79.71    148.41     58.24      0.00
  117                180.10    151.57     59.78      0.00
  119                269.48    159.60     68.29      0.00
  120                  0.00    156.99     68.03      0.00
  121                 63.69    163.16     71.56      0.00
  123                  0.00    167.57     67.84      0.00
  125                 69.77    162.66     65.72      0.00
  127                 27.02    161.27     45.61      0.00
  129                  0.00    161.26     47.77      0.00
  131                 65.41    161.23     67.26      0.00
  139                  9.01    155.29     53.86      0.00
  141                 15.07    151.08     63.73      0.00
  143                  9.49    140.52     62.84      0.00
  145                 42.27    152.21     65.52      0.00
  147                 13.08    153.09     58.32      0.00
  149                 41.42    153.47     59.56      0.00
  151                221.05    157.28     53.63      0.00
  153                 67.58    157.38     39.51      0.00
  157                 79.24    157.13     62.41      0.00
  159                 63.22    153.74     64.02      0.00
  161                 24.17    151.45     63.89      0.00
  163                 14.41    150.99     63.26      0.00
  164                  0.00    150.99     63.26      0.00
  166                  3.98    150.99     66.29      0.00
  167                 22.28    149.11     66.78      0.00
  169                  0.00    149.11     66.78      0.00
  171                 60.19    148.03     65.88      0.00
  173                  0.00    148.01     65.87      0.00
  177                 89.00    147.82     60.58      0.00
  179                  0.00    147.82     60.58      0.00
  181                  0.00    147.82     60.58      0.00
  183                  0.00    147.81     59.28      0.00
  184                  0.00    146.19     56.41      0.00
  185                 39.24    146.85     56.70      0.00
  187                  0.00    147.51     58.50      0.00
  189                165.12    147.94     62.37      0.00
  191                125.31    147.67     53.15      0.00
  193                109.10    147.80     56.24      0.00
  195                  0.00    147.88     57.36      0.00
  197                 26.07    147.66     54.02      0.00
  199                182.56    142.06     62.42      0.00
  201                 68.25    141.24     61.16      0.00
  203               4582.65    141.07     60.26      0.00
  204                  0.00    147.28     54.72      0.00
  205                100.00    142.00     52.43      0.00
  206                  0.00    140.70     60.53      0.00
  207                106.17    141.11     57.24      0.00
  208                  0.00    140.24     53.83      0.00
  209                  1.33    139.44     61.29      0.00
  211                 13.27    139.17     57.27      0.00
  213                 21.33    139.08     57.23      0.00
  215                141.05    138.83     57.12      0.00
  217                 37.06    138.81     57.55      0.00
  219                 63.22    138.79     58.41      0.00
  225                 34.88    138.80     56.68      0.00
  229                 98.20    138.83     55.61      0.00
  231                 25.21    138.83     57.99      0.00
  237                 23.88    138.91     54.12      0.00
  239                 68.25    138.89     54.55      0.00
  241                  0.00    138.89     54.55      0.00
  243                  6.64    138.89     54.11      0.00
  247                107.68    138.89     52.38      0.00
  249                  0.00    138.89     52.38      0.00
  251                 36.96    138.89     47.18      0.00
  253                 83.42    138.87     44.57      0.00
  255                 61.80    138.94     48.50      0.00
  257                  0.00    153.67     59.22      0.00
  259                  0.00    153.20     55.55      0.00
  261                  0.00    151.52     65.65      0.00
  263                  0.00    151.34     65.58      0.00
  265                  0.00    149.71     64.87      0.00
  267                  0.00    147.94     55.00      0.00
  269                  0.00    148.41     64.30      0.00
  271                  0.00    147.88     61.48      0.00
  273                  0.00    142.01     58.07      0.00
  275                  0.00    141.24     56.87      0.00
  River           -13086.76    220.00      0.00      0.00  Reservoir
  Lake                 0.00    167.00      0.00      0.00  Reservoir
  1                 -233.32    148.02      6.99      0.00  Tank
  2                 -250.73    139.38      9.91      0.00  Tank
  3                 1965.34    160.69     13.73      0.00  Tank
   
   
  Link Results at 24:00:00 hrs:
  ----------------------------------------------
                       Flow  Velocity  Headloss
  Link                  gpm       fps   /1000ft
  ----------------------------------------------
  20               -1965.34      0.08      0.00
  40                 233.32      0.01      0.00
  50                 250.73      0.01      0.00
  60               13086.76      9.28      8.84
  101                  0.00      0.00      0.00
  103                151.20      0.24      0.02
  105               -441.83      1.25      0.56
  107                 11.79      0.03      0.00
  109                -52.59      0.08      0.00
  111               -406.64      1.15      0.48
  112                476.79      1.35      0.64
  113               -142.15      0.40      0.07
  114                111.75      0.71      0.32
  115                -71.81      0.46      0.14
  116                -61.02      0.17      0.01
  117                660.73      1.87      1.18
  119               -740.06      2.10      1.45
  120               1203.33      3.41      3.57
  121               1075.56      3.05      2.90
  122                377.56      2.41      3.01
  123               9975.88      4.53      1.78
  125              13086.76      5.94      2.94
  129               2669.63      1.89      0.53
  131               2374.26      1.68      0.43
  133              -1965.34      2.01      0.74
  135                381.89      0.27      0.01
  137                 65.41      0.10      0.00
  145                316.49      2.02      2.17
  147                307.48      1.96      2.06
  149               -620.27      3.96      7.54
  151               -610.78      3.90      7.33
  153                327.86      0.93      0.32
  155                370.13      1.05      0.40
  159               -383.22      1.09      0.43
  161               -424.63      2.71      3.74
  163               -158.02      0.45      0.08
  169                225.60      1.44      1.16
  171                487.67      1.38      0.67
  173               8015.41      3.64      1.19
  175               7936.17      3.60      1.16
  177               7872.95      3.57      1.15
  179               7584.56      3.44      1.07
  180                  3.98      0.01      0.00
  181                  3.98      0.01      0.00
  183               7345.12      3.33      1.01
  185                -22.28      0.14      0.02
  186                326.99      2.09      2.30
  187               6687.75      3.04      0.85
  189               5033.21      2.28      0.50
  191              -1594.35      1.13      0.21
  193              -1748.43      1.24      0.24
  195                -25.55      0.07      0.00
  197               -114.55      0.32      0.05
  199                118.77      0.34      0.05
  201                233.32      0.66      0.17
  202                579.86      3.70      6.66
  203                292.11      1.86      1.87
  204                579.86      1.64      0.92
  205                326.99      0.93      0.32
  207                173.34      0.49      0.10
  209                192.78      1.23      0.87
  211                635.09      1.80      1.09
  213                134.21      0.38      0.06
  215                 24.68      0.07      0.00
  217               -290.45      0.82      0.26
  219               -264.21      0.75      0.22
  221                264.21      1.69      1.55
  223                -30.93      0.09      0.00
  225                 -4.86      0.01      0.00
  229               5033.21      3.57      1.49
  231               4697.31      3.33      1.31
  233               4582.65      3.25      1.45
  235                153.35      0.44      0.08
  237                515.93      1.46      0.74
  238                573.45      1.63      0.90
  239                163.69      0.46      0.09
  240                573.45      1.63      0.90
  241                573.45      1.63      0.90
  243                572.11      0.91      0.22
  245                361.31      0.58      0.09
  247                276.21      0.44      0.06
  249                135.16      0.22      0.02
  251                 63.22      0.13      0.01
  257                 34.88      0.10      0.01
  261                 63.77      0.41      0.11
  263                 25.21      0.07      0.00
  269                197.54      0.56      0.13
  271                 59.64      0.38      0.10
  273                114.02      0.32      0.05
  275                 21.27      0.06      0.00
  277                  6.64      0.02      0.00
  281                 14.63      0.06      0.00
  283                 24.50      0.07      0.00
  285                -28.32      0.08      0.00
  287                -64.74      0.26      0.04
  289                250.73      1.02      0.48
  291                 83.42      0.34      0.06
  293                 40.78      0.26      0.05
  295                 -3.82      0.01      0.00
  297                505.33      3.23      5.16
  299                242.83      1.55      1.33
  301                242.83      1.55      1.33
  303                262.50      1.68      1.53
  305                155.40      0.44      0.08
  307                417.90      1.19      0.50
  309                221.05      1.41      1.12
  311               -196.37      0.56      0.12
  313                506.56      1.44      0.72
  315              -1722.88      1.22      0.24
  317                117.28      0.75      0.35
  319                 36.06      0.10      0.01
  321               7566.17      3.43      1.07
  323                 46.41      0.13      0.01
  325                128.53      0.82      0.41
  329              13086.76      5.94      2.98
  330                  0.00      0.00      0.00
  333                 -0.00      0.00      0.00
  10                   0.00      0.00      0.00  Pump
  335              13086.76      0.00    -94.07  Pump
   
  Analysis ended Wed May 06 17:00:29 2020
