  Page 1                                    Wed May 06 17:00:56 2020

  ******************************************************************
  *                           E P A N E T                          *
  *                   Hydraulic and Water Quality                  *
  *                   Analysis for Pipe Networks                   *
  *                         Version 2.00.12                        *
  ******************************************************************
  
  Analysis begun Wed May 06 17:00:56 2020

   
  Hydraulic Status:
  -----------------------------------------------------------------------
     0:00:00: Balanced after 5 trials
     0:00:00: Reservoir River is emptying
     0:00:00: Reservoir Lake is closed
     0:00:00: Tank 1 is filling at 13.10 ft
     0:00:00: Tank 2 is emptying at 23.50 ft
     0:00:00: Tank 3 is filling at 29.00 ft
   
     0:05:00: Balanced after 2 trials
   
     0:10:00: Balanced after 2 trials
   
     0:15:00: Balanced after 2 trials
   
     0:20:00: Balanced after 2 trials
   
     0:25:00: Balanced after 1 trials
   
     0:30:00: Balanced after 1 trials
   
     0:35:00: Balanced after 1 trials
   
     0:40:00: Balanced after 1 trials
   
     0:45:00: Balanced after 1 trials
   
     0:50:00: Balanced after 1 trials
   
     0:55:00: Balanced after 1 trials
   
     1:00:00: Pump 10 changed by timer control
     1:00:00: Balanced after 7 trials
     1:00:00: Reservoir Lake is emptying
     1:00:00: Pump 10 changed from closed to open
   
     1:05:00: Balanced after 2 trials
   
     1:10:00: Balanced after 2 trials
   
     1:15:00: Balanced after 2 trials
   
     1:20:00: Balanced after 2 trials
   
     1:25:00: Balanced after 2 trials
   
     1:30:00: Balanced after 2 trials
   
     1:35:00: Balanced after 2 trials
   
     1:40:00: Balanced after 2 trials
   
     1:45:00: Balanced after 2 trials
   
     1:50:00: Balanced after 2 trials
   
     1:55:00: Balanced after 2 trials
   
     2:00:00: Balanced after 3 trials
     2:00:00: Tank 2 is filling at 22.57 ft
   
     2:05:00: Balanced after 1 trials
   
     2:10:00: Balanced after 1 trials
   
     2:15:00: Balanced after 1 trials
   
     2:20:00: Balanced after 1 trials
   
     2:25:00: Balanced after 1 trials
   
     2:30:00: Balanced after 1 trials
   
     2:35:00: Balanced after 1 trials
   
     2:40:00: Balanced after 1 trials
   
     2:45:00: Balanced after 1 trials
   
     2:50:00: Balanced after 1 trials
   
     2:55:00: Balanced after 1 trials
   
     3:00:00: Balanced after 2 trials
   
     3:05:00: Balanced after 1 trials
   
     3:10:00: Balanced after 1 trials
   
     3:15:00: Balanced after 1 trials
   
     3:20:00: Balanced after 1 trials
   
     3:25:00: Balanced after 1 trials
   
     3:30:00: Balanced after 1 trials
   
     3:35:00: Balanced after 1 trials
   
     3:40:00: Balanced after 1 trials
   
     3:43:58: Pump 335 changed by Tank 1 control
     3:43:58: Pipe 330 changed by Tank 1 control
     3:43:58: Balanced after 4 trials
     3:43:58: Tank 3 is emptying at 33.80 ft
     3:43:58: Pipe 330 changed from closed to open
     3:43:58: Pump 335 changed from open to closed
   
     3:45:00: Balanced after 1 trials
   
     3:50:00: Balanced after 2 trials
   
     3:55:00: Balanced after 2 trials
   
     4:00:00: Balanced after 3 trials
     4:00:00: Tank 3 is filling at 33.77 ft
   
     4:05:00: Balanced after 2 trials
   
     4:10:00: Balanced after 2 trials
   
     4:15:00: Balanced after 2 trials
   
     4:20:00: Balanced after 2 trials
   
     4:25:00: Balanced after 2 trials
   
     4:30:00: Balanced after 2 trials
   
     4:35:00: Balanced after 2 trials
   
     4:40:00: Balanced after 2 trials
   
     4:45:00: Balanced after 2 trials
   
     4:50:00: Balanced after 2 trials
   
     4:55:00: Balanced after 2 trials
   
     5:00:00: Balanced after 3 trials
     5:00:00: Tank 3 is emptying at 34.20 ft
   
     5:05:00: Balanced after 2 trials
   
     5:10:00: Balanced after 2 trials
   
     5:15:00: Balanced after 2 trials
   
     5:20:00: Balanced after 2 trials
   
     5:25:00: Balanced after 2 trials
   
     5:30:00: Balanced after 2 trials
   
     5:35:00: Balanced after 2 trials
   
     5:40:00: Balanced after 2 trials
   
     5:45:00: Balanced after 2 trials
   
     5:50:00: Balanced after 2 trials
   
     5:55:00: Balanced after 2 trials
   
     6:00:00: Balanced after 3 trials
     6:00:00: Tank 3 is filling at 34.15 ft
   
     6:05:00: Balanced after 1 trials
   
     6:10:00: Balanced after 1 trials
   
     6:15:00: Balanced after 1 trials
   
     6:20:00: Balanced after 1 trials
   
     6:25:00: Balanced after 1 trials
   
     6:30:00: Balanced after 1 trials
   
     6:35:00: Balanced after 1 trials
   
     6:40:00: Balanced after 1 trials
   
     6:45:00: Balanced after 1 trials
   
     6:50:00: Balanced after 1 trials
   
     6:55:00: Balanced after 1 trials
   
     7:00:00: Balanced after 3 trials
   
     7:05:00: Balanced after 1 trials
   
     7:10:00: Balanced after 1 trials
   
     7:15:00: Balanced after 1 trials
   
     7:20:00: Balanced after 1 trials
   
     7:25:00: Balanced after 1 trials
   
     7:30:00: Balanced after 1 trials
   
     7:35:00: Balanced after 1 trials
   
     7:40:00: Balanced after 1 trials
   
     7:45:00: Balanced after 1 trials
   
     7:50:00: Balanced after 1 trials
   
     7:55:00: Balanced after 1 trials
   
     8:00:00: Balanced after 3 trials
   
     8:05:00: Balanced after 1 trials
   
     8:10:00: Balanced after 1 trials
   
     8:15:00: Balanced after 1 trials
   
     8:20:00: Balanced after 1 trials
   
     8:25:00: Balanced after 1 trials
   
     8:30:00: Balanced after 1 trials
   
     8:35:00: Balanced after 1 trials
   
     8:40:00: Balanced after 1 trials
   
     8:45:00: Balanced after 1 trials
   
     8:50:00: Balanced after 1 trials
   
     8:55:00: Balanced after 1 trials
   
     9:00:00: Balanced after 3 trials
     9:00:00: Tank 1 is emptying at 22.73 ft
     9:00:00: Tank 2 is emptying at 28.55 ft
     9:00:00: Tank 3 is emptying at 35.33 ft
   
     9:05:00: Balanced after 1 trials
   
     9:10:00: Balanced after 1 trials
   
     9:15:00: Balanced after 1 trials
   
     9:20:00: Balanced after 1 trials
   
     9:25:00: Balanced after 1 trials
   
     9:30:00: Balanced after 1 trials
   
     9:35:00: Balanced after 1 trials
   
     9:40:00: Balanced after 1 trials
   
     9:45:00: Balanced after 1 trials
   
     9:50:00: Balanced after 1 trials
   
     9:55:00: Balanced after 1 trials
   
    10:00:00: Balanced after 4 trials
    10:00:00: Tank 1 is filling at 22.33 ft
    10:00:00: Tank 2 is filling at 28.27 ft
   
    10:05:00: Balanced after 2 trials
   
    10:10:00: Balanced after 2 trials
   
    10:15:00: Balanced after 2 trials
   
    10:20:00: Balanced after 2 trials
   
    10:25:00: Balanced after 2 trials
   
    10:30:00: Balanced after 2 trials
   
    10:35:00: Balanced after 2 trials
   
    10:40:00: Balanced after 2 trials
   
    10:45:00: Balanced after 2 trials
   
    10:50:00: Balanced after 2 trials
   
    10:55:00: Balanced after 2 trials
   
    11:00:00: Balanced after 3 trials
   
    11:05:00: Balanced after 2 trials
   
    11:10:00: Balanced after 2 trials
   
    11:15:00: Balanced after 2 trials
   
    11:20:00: Balanced after 2 trials
   
    11:25:00: Balanced after 2 trials
   
    11:30:00: Balanced after 2 trials
   
    11:35:00: Balanced after 2 trials
   
    11:40:00: Balanced after 2 trials
   
    11:45:00: Balanced after 2 trials
   
    11:50:00: Balanced after 2 trials
   
    11:55:00: Balanced after 2 trials
   
    12:00:00: Balanced after 3 trials
    12:00:00: Tank 1 is emptying at 22.62 ft
    12:00:00: Tank 2 is emptying at 28.83 ft
   
    12:05:00: Balanced after 1 trials
   
    12:10:00: Balanced after 1 trials
   
    12:15:00: Balanced after 1 trials
   
    12:20:00: Balanced after 1 trials
   
    12:25:00: Balanced after 1 trials
   
    12:30:00: Balanced after 1 trials
   
    12:35:00: Balanced after 1 trials
   
    12:40:00: Balanced after 1 trials
   
    12:45:00: Balanced after 1 trials
   
    12:50:00: Balanced after 1 trials
   
    12:55:00: Balanced after 1 trials
   
    13:00:00: Balanced after 3 trials
    13:00:00: Tank 2 is filling at 28.50 ft
   
    13:05:00: Balanced after 1 trials
   
    13:10:00: Balanced after 1 trials
   
    13:15:00: Balanced after 1 trials
   
    13:20:00: Balanced after 1 trials
   
    13:25:00: Balanced after 1 trials
   
    13:30:00: Balanced after 1 trials
   
    13:35:00: Balanced after 1 trials
   
    13:40:00: Balanced after 1 trials
   
    13:45:00: Balanced after 1 trials
   
    13:50:00: Balanced after 1 trials
   
    13:55:00: Balanced after 1 trials
   
    14:00:00: Balanced after 4 trials
    14:00:00: Tank 1 is filling at 22.06 ft
    14:00:00: Tank 3 is filling at 33.97 ft
   
    14:05:00: Balanced after 2 trials
   
    14:10:00: Balanced after 2 trials
   
    14:15:00: Balanced after 2 trials
   
    14:20:00: Balanced after 2 trials
   
    14:25:00: Balanced after 2 trials
   
    14:30:00: Balanced after 2 trials
   
    14:35:00: Balanced after 2 trials
   
    14:40:00: Balanced after 2 trials
   
    14:45:00: Balanced after 2 trials
   
    14:50:00: Balanced after 2 trials
   
    14:55:00: Balanced after 2 trials
   
    15:00:00: Pump 10 changed by timer control
    15:00:00: Balanced after 5 trials
    15:00:00: Reservoir Lake is closed
    15:00:00: Tank 1 is emptying at 22.81 ft
    15:00:00: Tank 2 is emptying at 29.52 ft
    15:00:00: Tank 3 is emptying at 34.01 ft
    15:00:00: Pump 10 changed from open to closed
   
    15:05:00: Balanced after 2 trials
   
    15:10:00: Balanced after 1 trials
   
    15:15:00: Balanced after 1 trials
   
    15:20:00: Balanced after 1 trials
   
    15:25:00: Balanced after 1 trials
   
    15:30:00: Balanced after 1 trials
   
    15:35:00: Balanced after 1 trials
   
    15:40:00: Balanced after 1 trials
   
    15:45:00: Balanced after 1 trials
   
    15:50:00: Balanced after 1 trials
   
    15:55:00: Balanced after 1 trials
   
    16:00:00: Balanced after 3 trials
    16:00:00: Tank 2 is filling at 28.94 ft
   
    16:05:00: Balanced after 2 trials
   
    16:10:00: Balanced after 2 trials
   
    16:15:00: Balanced after 2 trials
   
    16:20:00: Balanced after 2 trials
   
    16:25:00: Balanced after 2 trials
   
    16:30:00: Balanced after 2 trials
   
    16:35:00: Balanced after 2 trials
   
    16:40:00: Balanced after 2 trials
   
    16:45:00: Balanced after 2 trials
   
    16:50:00: Balanced after 2 trials
   
    16:55:00: Balanced after 2 trials
   
    17:00:00: Balanced after 3 trials
    17:00:00: Tank 2 is emptying at 29.12 ft
   
    17:05:00: Balanced after 1 trials
   
    17:10:00: Balanced after 1 trials
   
    17:15:00: Balanced after 1 trials
   
    17:20:00: Balanced after 1 trials
   
    17:25:00: Balanced after 1 trials
   
    17:30:00: Balanced after 1 trials
   
    17:35:00: Balanced after 1 trials
   
    17:40:00: Balanced after 1 trials
   
    17:45:00: Balanced after 1 trials
   
    17:50:00: Balanced after 1 trials
   
    17:55:00: Balanced after 1 trials
   
    18:00:00: Balanced after 3 trials
    18:00:00: Tank 2 is filling at 28.47 ft
   
    18:05:00: Balanced after 1 trials
   
    18:10:00: Balanced after 1 trials
   
    18:15:00: Balanced after 1 trials
   
    18:20:00: Balanced after 1 trials
   
    18:25:00: Balanced after 1 trials
   
    18:30:00: Balanced after 1 trials
   
    18:35:00: Balanced after 1 trials
   
    18:40:00: Balanced after 1 trials
   
    18:45:00: Balanced after 1 trials
   
    18:50:00: Balanced after 1 trials
   
    18:55:00: Balanced after 1 trials
   
    19:00:00: Balanced after 3 trials
    19:00:00: Tank 2 is emptying at 28.59 ft
   
    19:05:00: Balanced after 2 trials
   
    19:10:00: Balanced after 2 trials
   
    19:15:00: Balanced after 2 trials
   
    19:20:00: Balanced after 2 trials
   
    19:25:00: Balanced after 2 trials
   
    19:30:00: Balanced after 2 trials
   
    19:35:00: Balanced after 2 trials
   
    19:40:00: Balanced after 2 trials
   
    19:45:00: Balanced after 2 trials
   
    19:50:00: Balanced after 1 trials
   
    19:55:00: Balanced after 1 trials
   
    20:00:00: Balanced after 3 trials
   
    20:05:00: Balanced after 1 trials
   
    20:10:00: Balanced after 1 trials
   
    20:15:00: Balanced after 1 trials
   
    20:20:00: Balanced after 1 trials
   
    20:25:00: Balanced after 1 trials
   
    20:30:00: Balanced after 1 trials
   
    20:35:00: Balanced after 1 trials
   
    20:40:00: Balanced after 1 trials
   
    20:45:00: Balanced after 1 trials
   
    20:50:00: Balanced after 1 trials
   
    20:55:00: Balanced after 1 trials
   
    21:00:00: Balanced after 3 trials
   
    21:05:00: Balanced after 1 trials
   
    21:10:00: Balanced after 1 trials
   
    21:15:00: Balanced after 1 trials
   
    21:20:00: Balanced after 1 trials
   
    21:25:00: Balanced after 1 trials
   
    21:30:00: Balanced after 1 trials
   
    21:35:00: Balanced after 1 trials
   
    21:40:00: Balanced after 1 trials
   
    21:45:00: Balanced after 1 trials
   
    21:50:00: Balanced after 1 trials
   
    21:51:28: Pump 335 changed by Tank 1 control
    21:51:28: Pipe 330 changed by Tank 1 control
    21:51:28: Balanced after 5 trials
    21:51:28: Tank 1 is filling at 17.10 ft
    21:51:28: Tank 3 is filling at 29.89 ft
    21:51:28: Pipe 330 changed from open to closed
    21:51:28: Pump 335 changed from closed to open
   
    21:55:00: Balanced after 2 trials
   
    22:00:00: Balanced after 4 trials
    22:00:00: Tank 1 is emptying at 17.11 ft
   
    22:05:00: Balanced after 2 trials
   
    22:10:00: Balanced after 2 trials
   
    22:15:00: Balanced after 2 trials
   
    22:20:00: Balanced after 2 trials
   
    22:25:00: Balanced after 2 trials
   
    22:30:00: Balanced after 2 trials
   
    22:35:00: Balanced after 2 trials
   
    22:40:00: Balanced after 2 trials
   
    22:45:00: Balanced after 2 trials
   
    22:50:00: Balanced after 2 trials
   
    22:55:00: Balanced after 2 trials
   
    23:00:00: Balanced after 3 trials
   
    23:05:00: Balanced after 2 trials
   
    23:10:00: Balanced after 2 trials
   
    23:15:00: Balanced after 2 trials
   
    23:20:00: Balanced after 2 trials
   
    23:25:00: Balanced after 2 trials
   
    23:30:00: Balanced after 2 trials
   
    23:35:00: Balanced after 2 trials
   
    23:40:00: Balanced after 2 trials
   
    23:45:00: Balanced after 2 trials
   
    23:50:00: Balanced after 2 trials
   
    23:55:00: Balanced after 2 trials
   
    24:00:00: Balanced after 3 trials
    24:00:00: Tank 1 is filling at 15.74 ft
    24:00:00: Tank 2 is filling at 23.13 ft
   
   
  Node Results at 0:00:00 hrs:
  --------------------------------------------------------
                     Demand      Head  Pressure  Chemical
  Node                  gpm        ft       psi      mg/L
  --------------------------------------------------------
  10                   0.00    147.56      0.24      0.00
  15                 583.25    130.22     42.56      0.00
  20                   0.00    158.00     12.57      0.00
  35                1763.80    146.99     58.27      0.00
  40                   0.00    145.00      5.68      0.00
  50                   0.00    140.00     10.18      0.00
  60                   0.00    209.05     90.58      0.00
  601                  0.00    302.72    131.17      0.00
  61                   0.00    302.72    131.17      0.00
  101                216.54    147.56     45.74      0.00
  103                151.85    147.53     45.29      0.00
  105                154.32    148.73     52.10      0.00
  107                 62.29    148.72     54.91      0.00
  109                263.80    147.52     55.13      0.00
  111                161.81    147.87     59.74      0.00
  113                 22.81    147.87     63.20      0.00
  115                 59.39    148.72     58.37      0.00
  117                134.19    151.67     59.82      0.00
  119                200.79    158.51     67.82      0.00
  120                  0.00    156.31     67.73      0.00
  121                 47.46    161.78     70.96      0.00
  123                  0.00    166.22     67.26      0.00
  125                 51.98    161.08     65.03      0.00
  127                 20.13    158.98     44.62      0.00
  129                  0.00    158.97     46.78      0.00
  131                 48.74    158.96     66.28      0.00
  139                  6.71    154.29     53.42      0.00
  141                 11.23    150.96     63.68      0.00
  143                  7.07    141.32     63.19      0.00
  145                 31.50    152.10     65.47      0.00
  147                  9.75    152.95     58.26      0.00
  149                 30.86    153.31     59.50      0.00
  151                164.71    156.77     53.41      0.00
  153                 50.35    156.86     39.28      0.00
  157                 59.04    156.17     61.99      0.00
  159                 47.10    152.93     63.66      0.00
  161                 18.01    150.73     63.58      0.00
  163                 10.74    150.29     62.95      0.00
  164                  0.00    150.29     62.95      0.00
  166                  2.96    150.29     65.99      0.00
  167                 16.60    148.47     66.50      0.00
  169                  0.00    148.47     66.50      0.00
  171                 44.85    147.40     65.60      0.00
  173                  0.00    147.38     65.59      0.00
  177                 66.31    146.96     60.21      0.00
  179                  0.00    146.93     60.20      0.00
  181                  0.00    146.99     60.23      0.00
  183                  0.00    146.96     58.91      0.00
  184                  0.00    146.05     56.35      0.00
  185                 29.24    146.57     56.57      0.00
  187                  0.00    147.33     58.42      0.00
  189                123.03    147.56     62.21      0.00
  191                 93.37    147.71     53.17      0.00
  193                 81.29    147.79     56.24      0.00
  195                  0.00    147.85     57.35      0.00
  197                 19.43    147.74     54.05      0.00
  199                136.02    142.83     62.76      0.00
  201                 50.86    142.19     61.57      0.00
  203               3989.76    142.06     60.69      0.00
  204                  0.00    147.06     54.62      0.00
  205                 74.51    142.79     52.77      0.00
  206                  0.00    141.72     60.97      0.00
  207                 79.10    142.07     57.66      0.00
  208                  0.00    141.31     54.30      0.00
  209                  0.99    140.61     61.79      0.00
  211                  9.88    140.38     57.79      0.00
  213                 15.89    140.31     57.76      0.00
  215                105.10    140.17     57.70      0.00
  217                 27.61    140.15     58.13      0.00
  219                 47.10    140.15     58.99      0.00
  225                 25.99    140.15     57.26      0.00
  229                 73.17    140.02     56.12      0.00
  231                 18.79    140.01     58.50      0.00
  237                 17.80    140.03     54.61      0.00
  239                 50.86    139.97     55.01      0.00
  241                  0.00    139.97     55.01      0.00
  243                  4.95    139.97     54.58      0.00
  247                 80.23    139.95     52.84      0.00
  249                  0.00    139.95     52.84      0.00
  251                 27.54    139.95     47.64      0.00
  253                 62.15    139.91     45.02      0.00
  255                 46.04    139.95     48.94      0.00
  257                  0.00    153.46     59.13      0.00
  259                  0.00    153.06     55.49      0.00
  261                  0.00    151.62     65.70      0.00
  263                  0.00    151.47     65.63      0.00
  265                  0.00    149.05     64.58      0.00
  267                  0.00    147.78     54.93      0.00
  269                  0.00    147.88     64.08      0.00
  271                  0.00    147.11     61.14      0.00
  273                  0.00    142.79     58.40      0.00
  275                  0.00    142.19     57.28      0.00
  River           -13132.59    220.00      0.00      0.00  Reservoir
  Lake                 0.00    167.00      0.00      0.00  Reservoir
  1                  786.18    145.00      5.68      0.00  Tank
  2                  -80.12    140.00     10.18      0.00  Tank
  3                 2614.87    158.00     12.57      0.00  Tank
   
   
  Link Results at 0:00:00 hrs:
  ----------------------------------------------
                       Flow  Velocity  Headloss
  Link                  gpm       fps   /1000ft
  ----------------------------------------------
  20               -2614.87      0.11      0.00
  40                -786.18      0.03      0.00
  50                  80.12      0.00      0.00
  60               13132.59      9.31      8.90
  101                  0.00      0.00      0.00
  103                181.81      0.29      0.03
  105               -398.36      1.13      0.46
  107                 54.28      0.15      0.01
  109                 29.96      0.05      0.00
  111               -233.83      0.66      0.17
  112                513.09      1.46      0.74
  113                  6.30      0.02      0.00
  114                131.65      0.84      0.43
  115                 -8.01      0.05      0.00
  116                115.14      0.33      0.05
  117                606.95      1.72      1.01
  119               -712.14      2.02      1.35
  120               1099.44      3.12      3.02
  121                988.76      2.80      2.48
  122                353.84      2.26      2.67
  123               9518.21      4.32      1.63
  125              13132.59      5.96      2.96
  129               3213.08      2.28      0.75
  131               2961.32      2.10      0.65
  133              -2614.87      2.67      1.25
  135                326.32      0.23      0.01
  137                 48.74      0.08      0.00
  145                277.59      1.77      1.70
  147                270.87      1.73      1.63
  149               -590.32      3.77      6.88
  151               -583.25      3.72      6.73
  153                330.68      0.94      0.33
  155                362.17      1.03      0.39
  159               -371.92      1.06      0.41
  161               -402.78      2.57      3.39
  163               -149.42      0.42      0.07
  169                199.77      1.28      0.93
  171                418.07      1.19      0.50
  173               7799.91      3.54      1.13
  175               7740.87      3.51      1.11
  177               7693.77      3.49      1.10
  179               7440.56      3.38      1.03
  180                  2.96      0.01      0.00
  181                  2.96      0.01      0.00
  183               7241.49      3.29      0.98
  185                -16.60      0.11      0.01
  186                354.76      2.26      2.68
  187               6650.88      3.02      0.84
  189               4357.51      1.98      0.38
  191              -2248.52      1.59      0.39
  193              -1763.80      1.25      0.25
  195                643.07      1.82      1.12
  197                576.75      1.64      0.91
  199               -209.43      0.59      0.14
  201               -786.18      2.23      1.62
  202                506.73      3.23      5.19
  203                181.21      1.16      0.77
  204                506.73      1.44      0.72
  205                354.76      1.01      0.37
  207                390.64      1.11      0.44
  209                138.11      0.88      0.47
  211                574.01      1.63      0.91
  213                216.65      0.61      0.15
  215                236.11      0.67      0.17
  217               -218.30      0.62      0.15
  219               -235.19      0.67      0.17
  221                235.19      1.50      1.25
  223                 91.72      0.26      0.03
  225                111.14      0.32      0.04
  229               4357.51      3.09      1.14
  231               4093.53      2.90      1.01
  233               3989.76      2.83      1.12
  235                127.95      0.36      0.06
  237                457.52      1.30      0.60
  238                533.98      1.51      0.79
  239                155.56      0.44      0.08
  240                533.98      1.51      0.79
  241                533.98      1.51      0.79
  243                532.99      0.85      0.19
  245                292.35      0.47      0.06
  247                205.80      0.33      0.03
  249                100.71      0.16      0.01
  251                 47.10      0.10      0.00
  257                 25.99      0.07      0.00
  261                 70.66      0.45      0.13
  263                 18.79      0.05      0.00
  269                230.75      0.65      0.17
  271                 21.30      0.14      0.01
  273                191.66      0.54      0.12
  275                 55.82      0.16      0.01
  277                  4.95      0.01      0.00
  281                 50.87      0.21      0.02
  283                 84.99      0.24      0.03
  285                -53.27      0.15      0.01
  287                 23.91      0.10      0.01
  289                 80.12      0.33      0.06
  291                 62.15      0.25      0.04
  293                 -4.17      0.03      0.00
  295                 31.71      0.09      0.00
  297                464.53      2.96      4.42
  299                223.21      1.42      1.14
  301                223.21      1.42      1.14
  303                241.31      1.54      1.31
  305                142.43      0.40      0.07
  307                383.74      1.09      0.43
  309                185.37      1.18      0.81
  311                 50.74      0.14      0.01
  313                415.67      1.18      0.50
  315              -2406.87      1.71      0.44
  317                102.64      0.66      0.27
  319                 25.31      0.07      0.00
  321               7426.86      3.37      1.03
  323                 52.92      0.15      0.01
  325                158.35      1.01      0.60
  329              13132.59      5.96      3.00
  330                  0.00      0.00      0.00
  333                 -0.00      0.00      0.00
  10                   0.00      0.00      0.00  Pump
  335              13132.59      0.00    -93.67  Pump
   
   
  Node Results at 0:05:00 hrs:
  --------------------------------------------------------
                     Demand      Head  Pressure  Chemical
  Node                  gpm        ft       psi      mg/L
  --------------------------------------------------------
  10                   0.00    147.63      0.27      0.00
  15                 583.25    130.29     42.59      0.00
  20                   0.00    158.08     12.60      0.00
  35                1763.80    147.05     58.30      0.00
  40                   0.00    145.09      5.72      0.00
  50                   0.00    139.97     10.17      0.00
  60                   0.00    209.05     90.58      0.00
  601                  0.00    302.74    131.18      0.00
  61                   0.00    302.74    131.18      0.00
  101                216.54    147.63     45.77      0.00
  103                151.85    147.59     45.32      0.00
  105                154.32    148.80     52.13      0.00
  107                 62.29    148.78     54.94      0.00
  109                263.80    147.59     55.15      0.00
  111                161.81    147.93     59.77      0.00
  113                 22.81    147.93     63.23      0.00
  115                 59.39    148.79     58.40      0.00
  117                134.19    151.74     59.85      0.00
  119                200.79    158.58     67.85      0.00
  120                  0.00    156.38     67.76      0.00
  121                 47.46    161.85     71.00      0.00
  123                  0.00    166.29     67.29      0.00
  125                 51.98    161.15     65.06      0.00
  127                 20.13    159.06     44.66      0.00
  129                  0.00    159.05     46.82      0.00
  131                 48.74    159.04     66.31      0.00
  139                  6.71    154.37     53.46      0.00
  141                 11.23    151.03     63.71      0.00
  143                  7.07    141.40     63.22      0.00
  145                 31.50    152.18     65.51      0.00
  147                  9.75    153.03     58.29      0.00
  149                 30.86    153.39     59.53      0.00
  151                164.71    156.84     53.44      0.00
  153                 50.35    156.93     39.31      0.00
  157                 59.04    156.24     62.02      0.00
  159                 47.10    153.00     63.69      0.00
  161                 18.01    150.80     63.61      0.00
  163                 10.74    150.35     62.98      0.00
  164                  0.00    150.35     62.98      0.00
  166                  2.96    150.35     66.01      0.00
  167                 16.60    148.54     66.53      0.00
  169                  0.00    148.54     66.53      0.00
  171                 44.85    147.47     65.63      0.00
  173                  0.00    147.45     65.62      0.00
  177                 66.31    147.03     60.24      0.00
  179                  0.00    147.00     60.23      0.00
  181                  0.00    147.06     60.26      0.00
  183                  0.00    147.03     58.94      0.00
  184                  0.00    146.11     56.38      0.00
  185                 29.24    146.63     56.60      0.00
  187                  0.00    147.40     58.45      0.00
  189                123.03    147.63     62.23      0.00
  191                 93.37    147.78     53.20      0.00
  193                 81.29    147.86     56.27      0.00
  195                  0.00    147.92     57.38      0.00
  197                 19.43    147.81     54.08      0.00
  199                136.02    142.89     62.78      0.00
  201                 50.86    142.25     61.59      0.00
  203               3989.76    142.11     60.71      0.00
  204                  0.00    147.13     54.65      0.00
  205                 74.51    142.84     52.79      0.00
  206                  0.00    141.75     60.99      0.00
  207                 79.10    142.12     57.68      0.00
  208                  0.00    141.34     54.31      0.00
  209                  0.99    140.62     61.80      0.00
  211                  9.88    140.38     57.79      0.00
  213                 15.89    140.32     57.77      0.00
  215                105.10    140.17     57.70      0.00
  217                 27.61    140.16     58.13      0.00
  219                 47.10    140.15     58.99      0.00
  225                 25.99    140.15     57.26      0.00
  229                 73.17    140.01     56.11      0.00
  231                 18.79    140.00     58.50      0.00
  237                 17.80    140.02     54.60      0.00
  239                 50.86    139.95     55.01      0.00
  241                  0.00    139.95     55.01      0.00
  243                  4.95    139.95     54.57      0.00
  247                 80.23    139.94     52.84      0.00
  249                  0.00    139.94     52.84      0.00
  251                 27.54    139.93     47.63      0.00
  253                 62.15    139.89     45.01      0.00
  255                 46.04    139.93     48.93      0.00
  257                  0.00    153.53     59.16      0.00
  259                  0.00    153.13     55.52      0.00
  261                  0.00    151.69     65.73      0.00
  263                  0.00    151.54     65.66      0.00
  265                  0.00    149.12     64.61      0.00
  267                  0.00    147.84     54.96      0.00
  269                  0.00    147.95     64.11      0.00
  271                  0.00    147.18     61.17      0.00
  273                  0.00    142.84     58.43      0.00
  275                  0.00    142.24     57.30      0.00
  River           -13130.19    220.00      0.00      0.00  Reservoir
  Lake                 0.00    167.00      0.00      0.00  Reservoir
  1                  780.99    145.09      5.72      0.00  Tank
  2                  -73.02    139.97     10.17      0.00  Tank
  3                 2610.57    158.08     12.60      0.00  Tank
   
   
  Link Results at 0:05:00 hrs:
  ----------------------------------------------
                       Flow  Velocity  Headloss
  Link                  gpm       fps   /1000ft
  ----------------------------------------------
  20               -2610.57      0.11      0.00
  40                -780.99      0.03      0.00
  50                  73.02      0.00      0.00
  60               13130.19      9.31      8.89
  101                  0.00      0.00      0.00
  103                181.87      0.29      0.03
  105               -398.41      1.13      0.46
  107                 54.32      0.15      0.01
  109                 30.02      0.05      0.00
  111               -233.78      0.66      0.17
  112                513.22      1.46      0.74
  113                  6.40      0.02      0.00
  114                131.68      0.84      0.43
  115                 -7.97      0.05      0.00
  116                115.27      0.33      0.05
  117                607.05      1.72      1.01
  119               -712.26      2.02      1.35
  120               1099.60      3.12      3.02
  121                988.90      2.81      2.48
  122                353.90      2.26      2.67
  123               9519.92      4.32      1.63
  125              13130.19      5.96      2.96
  129               3208.91      2.28      0.75
  131               2957.11      2.10      0.65
  133              -2610.57      2.67      1.24
  135                326.41      0.23      0.01
  137                 48.74      0.08      0.00
  145                277.67      1.77      1.70
  147                270.96      1.73      1.63
  149               -590.32      3.77      6.88
  151               -583.25      3.72      6.73
  153                330.59      0.94      0.33
  155                362.09      1.03      0.39
  159               -371.83      1.05      0.41
  161               -402.69      2.57      3.39
  163               -149.46      0.42      0.08
  169                199.81      1.28      0.93
  171                417.94      1.19      0.50
  173               7801.59      3.54      1.13
  175               7742.55      3.51      1.11
  177               7695.45      3.49      1.10
  179               7442.23      3.38      1.03
  180                  2.96      0.01      0.00
  181                  2.96      0.01      0.00
  183               7243.19      3.29      0.98
  185                -16.60      0.11      0.01
  186                355.06      2.27      2.68
  187               6652.77      3.02      0.84
  189               4363.68      1.98      0.38
  191              -2244.24      1.59      0.39
  193              -1763.80      1.25      0.25
  195                638.77      1.81      1.11
  197                572.46      1.62      0.90
  199               -208.53      0.59      0.14
  201               -780.99      2.22      1.60
  202                507.65      3.24      5.20
  203                181.83      1.16      0.78
  204                507.65      1.44      0.72
  205                355.06      1.01      0.37
  207                390.35      1.11      0.44
  209                138.26      0.88      0.47
  211                573.82      1.63      0.91
  213                216.80      0.62      0.15
  215                236.15      0.67      0.18
  217               -218.37      0.62      0.15
  219               -235.20      0.67      0.17
  221                235.20      1.50      1.25
  223                 91.80      0.26      0.03
  225                111.23      0.32      0.04
  229               4363.68      3.09      1.14
  231               4098.08      2.91      1.02
  233               3989.76      2.83      1.12
  235                129.57      0.37      0.06
  237                459.99      1.30      0.60
  238                541.07      1.53      0.81
  239                160.19      0.45      0.09
  240                541.07      1.53      0.81
  241                541.07      1.53      0.81
  243                540.08      0.86      0.20
  245                294.01      0.47      0.06
  247                205.80      0.33      0.03
  249                100.71      0.16      0.01
  251                 47.10      0.10      0.00
  257                 25.99      0.07      0.00
  261                 72.32      0.46      0.14
  263                 18.79      0.05      0.00
  269                236.18      0.67      0.18
  271                 19.63      0.13      0.01
  273                198.75      0.56      0.13
  275                 58.47      0.17      0.01
  277                  4.95      0.01      0.00
  281                 53.52      0.22      0.03
  283                 89.43      0.25      0.03
  285                -53.51      0.15      0.01
  287                 26.80      0.11      0.01
  289                 73.02      0.30      0.05
  291                 62.15      0.25      0.04
  293                 -8.38      0.05      0.00
  295                 35.92      0.10      0.01
  297                464.60      2.97      4.42
  299                223.25      1.42      1.14
  301                223.25      1.42      1.14
  303                241.35      1.54      1.31
  305                142.45      0.40      0.07
  307                383.81      1.09      0.43
  309                185.34      1.18      0.81
  311                 50.81      0.14      0.01
  313                415.49      1.18      0.50
  315              -2402.57      1.70      0.44
  317                102.72      0.66      0.27
  319                 26.85      0.08      0.00
  321               7428.53      3.37      1.03
  323                 57.47      0.16      0.01
  325                158.33      1.01      0.60
  329              13130.19      5.96      3.00
  330                  0.00      0.00      0.00
  333                 -0.00      0.00      0.00
  10                   0.00      0.00      0.00  Pump
  335              13130.19      0.00    -93.69  Pump
   
   
  Node Results at 0:10:00 hrs:
  --------------------------------------------------------
                     Demand      Head  Pressure  Chemical
  Node                  gpm        ft       psi      mg/L
  --------------------------------------------------------
  10                   0.00    147.70      0.30      0.00
  15                 583.25    130.37     42.62      0.00
  20                   0.00    158.17     12.64      0.00
  35                1763.80    147.12     58.33      0.00
  40                   0.00    145.18      5.76      0.00
  50                   0.00    139.95     10.16      0.00
  60                   0.00    209.06     90.58      0.00
  601                  0.00    302.77    131.19      0.00
  61                   0.00    302.77    131.19      0.00
  101                216.54    147.70     45.80      0.00
  103                151.85    147.66     45.35      0.00
  105                154.32    148.87     52.16      0.00
  107                 62.29    148.85     54.97      0.00
  109                263.80    147.66     55.18      0.00
  111                161.81    148.00     59.80      0.00
  113                 22.81    148.00     63.26      0.00
  115                 59.39    148.86     58.43      0.00
  117                134.19    151.81     59.88      0.00
  119                200.79    158.66     67.88      0.00
  120                  0.00    156.45     67.79      0.00
  121                 47.46    161.92     71.03      0.00
  123                  0.00    166.36     67.32      0.00
  125                 51.98    161.22     65.09      0.00
  127                 20.13    159.14     44.69      0.00
  129                  0.00    159.13     46.85      0.00
  131                 48.74    159.11     66.34      0.00
  139                  6.71    154.45     53.49      0.00
  141                 11.23    151.11     63.74      0.00
  143                  7.07    141.47     63.25      0.00
  145                 31.50    152.25     65.54      0.00
  147                  9.75    153.10     58.32      0.00
  149                 30.86    153.46     59.56      0.00
  151                164.71    156.91     53.48      0.00
  153                 50.35    157.00     39.34      0.00
  157                 59.04    156.31     62.05      0.00
  159                 47.10    153.07     63.72      0.00
  161                 18.01    150.87     63.64      0.00
  163                 10.74    150.42     63.01      0.00
  164                  0.00    150.42     63.01      0.00
  166                  2.96    150.42     66.04      0.00
  167                 16.60    148.60     66.56      0.00
  169                  0.00    148.60     66.56      0.00
  171                 44.85    147.54     65.66      0.00
  173                  0.00    147.52     65.65      0.00
  177                 66.31    147.10     60.27      0.00
  179                  0.00    147.07     60.26      0.00
  181                  0.00    147.13     60.28      0.00
  183                  0.00    147.10     58.97      0.00
  184                  0.00    146.18     56.41      0.00
  185                 29.24    146.70     56.63      0.00
  187                  0.00    147.46     58.48      0.00
  189                123.03    147.70     62.26      0.00
  191                 93.37    147.85     53.23      0.00
  193                 81.29    147.92     56.30      0.00
  195                  0.00    147.99     57.41      0.00
  197                 19.43    147.88     54.11      0.00
  199                136.02    142.94     62.80      0.00
  201                 50.86    142.30     61.62      0.00
  203               3989.76    142.17     60.73      0.00
  204                  0.00    147.19     54.68      0.00
  205                 74.51    142.90     52.82      0.00
  206                  0.00    141.79     61.01      0.00
  207                 79.10    142.17     57.70      0.00
  208                  0.00    141.37     54.32      0.00
  209                  0.99    140.63     61.80      0.00
  211                  9.88    140.39     57.80      0.00
  213                 15.89    140.32     57.77      0.00
  215                105.10    140.18     57.71      0.00
  217                 27.61    140.16     58.13      0.00
  219                 47.10    140.16     59.00      0.00
  225                 25.99    140.16     57.26      0.00
  229                 73.17    140.00     56.11      0.00
  231                 18.79    140.00     58.49      0.00
  237                 17.80    140.01     54.60      0.00
  239                 50.86    139.94     55.00      0.00
  241                  0.00    139.94     55.00      0.00
  243                  4.95    139.94     54.57      0.00
  247                 80.23    139.92     52.83      0.00
  249                  0.00    139.92     52.83      0.00
  251                 27.54    139.92     47.63      0.00
  253                 62.15    139.87     45.01      0.00
  255                 46.04    139.91     48.92      0.00
  257                  0.00    153.60     59.19      0.00
  259                  0.00    153.20     55.55      0.00
  261                  0.00    151.76     65.76      0.00
  263                  0.00    151.61     65.69      0.00
  265                  0.00    149.18     64.64      0.00
  267                  0.00    147.91     54.99      0.00
  269                  0.00    148.02     64.14      0.00
  271                  0.00    147.24     61.20      0.00
  273                  0.00    142.90     58.45      0.00
  275                  0.00    142.30     57.32      0.00
  River           -13127.79    220.00      0.00      0.00  Reservoir
  Lake                 0.00    167.00      0.00      0.00  Reservoir
  1                  775.95    145.18      5.76      0.00  Tank
  2                  -66.16    139.95     10.16      0.00  Tank
  3                 2606.35    158.17     12.64      0.00  Tank
   
   
  Link Results at 0:10:00 hrs:
  ----------------------------------------------
                       Flow  Velocity  Headloss
  Link                  gpm       fps   /1000ft
  ----------------------------------------------
  20               -2606.35      0.11      0.00
  40                -775.95      0.03      0.00
  50                  66.16      0.00      0.00
  60               13127.79      9.31      8.89
  101                  0.00      0.00      0.00
  103                181.92      0.29      0.03
  105               -398.46      1.13      0.46
  107                 54.36      0.15      0.01
  109                 30.07      0.05      0.00
  111               -233.73      0.66      0.17
  112                513.34      1.46      0.74
  113                  6.50      0.02      0.00
  114                131.71      0.84      0.43
  115                 -7.93      0.05      0.00
  116                115.40      0.33      0.05
  117                607.14      1.72      1.01
  119               -712.38      2.02      1.35
  120               1099.75      3.12      3.02
  121                989.05      2.81      2.48
  122                353.96      2.26      2.67
  123               9521.56      4.32      1.63
  125              13127.79      5.96      2.96
  129               3204.82      2.27      0.75
  131               2952.98      2.09      0.64
  133              -2606.35      2.66      1.24
  135                326.49      0.23      0.01
  137                 48.74      0.08      0.00
  145                277.76      1.77      1.70
  147                271.05      1.73      1.63
  149               -590.32      3.77      6.88
  151               -583.25      3.72      6.73
  153                330.50      0.94      0.33
  155                362.00      1.03      0.39
  159               -371.75      1.05      0.41
  161               -402.61      2.57      3.39
  163               -149.50      0.42      0.08
  169                199.86      1.28      0.93
  171                417.81      1.19      0.50
  173               7803.21      3.54      1.13
  175               7744.17      3.51      1.11
  177               7697.06      3.49      1.10
  179               7443.83      3.38      1.03
  180                  2.96      0.01      0.00
  181                  2.96      0.01      0.00
  183               7244.83      3.29      0.98
  185                -16.60      0.11      0.01
  186                355.36      2.27      2.69
  187               6654.59      3.02      0.84
  189               4369.65      1.98      0.39
  191              -2240.08      1.59      0.39
  193              -1763.80      1.25      0.25
  195                634.60      1.80      1.09
  197                568.29      1.61      0.89
  199               -207.66      0.59      0.14
  201               -775.95      2.20      1.58
  202                508.54      3.25      5.22
  203                182.42      1.16      0.78
  204                508.54      1.44      0.72
  205                355.36      1.01      0.37
  207                390.08      1.11      0.44
  209                138.40      0.88      0.47
  211                573.64      1.63      0.91
  213                216.95      0.62      0.15
  215                236.19      0.67      0.18
  217               -218.44      0.62      0.15
  219               -235.22      0.67      0.17
  221                235.22      1.50      1.25
  223                 91.88      0.26      0.03
  225                111.30      0.32      0.04
  229               4369.65      3.10      1.14
  231               4102.46      2.91      1.02
  233               3989.76      2.83      1.12
  235                131.17      0.37      0.06
  237                462.39      1.31      0.61
  238                547.93      1.55      0.83
  239                164.65      0.47      0.09
  240                547.93      1.55      0.83
  241                547.93      1.55      0.83
  243                546.94      0.87      0.20
  245                295.63      0.47      0.07
  247                205.80      0.33      0.03
  249                100.71      0.16      0.01
  251                 47.10      0.10      0.00
  257                 25.99      0.07      0.00
  261                 73.94      0.47      0.15
  263                 18.79      0.05      0.00
  269                241.42      0.68      0.18
  271                 18.01      0.11      0.01
  273                205.61      0.58      0.14
  275                 61.04      0.17      0.01
  277                  4.95      0.01      0.00
  281                 56.09      0.23      0.03
  283                 93.72      0.27      0.03
  285                -55.02      0.16      0.01
  287                 30.88      0.13      0.01
  289                 66.16      0.27      0.04
  291                 62.15      0.25      0.04
  293                -11.16      0.07      0.00
  295                 38.70      0.11      0.01
  297                464.66      2.97      4.42
  299                223.28      1.43      1.14
  301                223.28      1.43      1.14
  303                241.39      1.54      1.31
  305                142.48      0.40      0.07
  307                383.86      1.09      0.43
  309                185.31      1.18      0.80
  311                 50.88      0.14      0.01
  313                415.32      1.18      0.50
  315              -2398.40      1.70      0.44
  317                102.80      0.66      0.27
  319                 28.37      0.08      0.00
  321               7430.13      3.37      1.03
  323                 61.84      0.18      0.01
  325                158.32      1.01      0.60
  329              13127.79      5.96      3.00
  330                  0.00      0.00      0.00
  333                 -0.00      0.00      0.00
  10                   0.00      0.00      0.00  Pump
  335              13127.79      0.00    -93.71  Pump
   
   
  Node Results at 0:15:00 hrs:
  --------------------------------------------------------
                     Demand      Head  Pressure  Chemical
  Node                  gpm        ft       psi      mg/L
  --------------------------------------------------------
  10                   0.00    147.77      0.33      0.00
  15                 583.25    130.44     42.66      0.00
  20                   0.00    158.25     12.67      0.00
  35                1763.80    147.19     58.36      0.00
  40                   0.00    145.28      5.80      0.00
  50                   0.00    139.93     10.15      0.00
  60                   0.00    209.06     90.59      0.00
  601                  0.00    302.79    131.20      0.00
  61                   0.00    302.79    131.20      0.00
  101                216.54    147.77     45.83      0.00
  103                151.85    147.73     45.38      0.00
  105                154.32    148.94     52.19      0.00
  107                 62.29    148.92     55.00      0.00
  109                263.80    147.73     55.21      0.00
  111                161.81    148.07     59.83      0.00
  113                 22.81    148.07     63.29      0.00
  115                 59.39    148.93     58.46      0.00
  117                134.19    151.88     59.91      0.00
  119                200.79    158.73     67.91      0.00
  120                  0.00    156.52     67.82      0.00
  121                 47.46    161.99     71.06      0.00
  123                  0.00    166.43     67.35      0.00
  125                 51.98    161.30     65.12      0.00
  127                 20.13    159.22     44.72      0.00
  129                  0.00    159.21     46.89      0.00
  131                 48.74    159.19     66.38      0.00
  139                  6.71    154.52     53.52      0.00
  141                 11.23    151.18     63.77      0.00
  143                  7.07    141.55     63.28      0.00
  145                 31.50    152.33     65.57      0.00
  147                  9.75    153.18     58.36      0.00
  149                 30.86    153.53     59.59      0.00
  151                164.71    156.99     53.51      0.00
  153                 50.35    157.07     39.38      0.00
  157                 59.04    156.38     62.08      0.00
  159                 47.10    153.14     63.75      0.00
  161                 18.01    150.94     63.67      0.00
  163                 10.74    150.49     63.04      0.00
  164                  0.00    150.49     63.04      0.00
  166                  2.96    150.49     66.07      0.00
  167                 16.60    148.67     66.59      0.00
  169                  0.00    148.67     66.59      0.00
  171                 44.85    147.60     65.69      0.00
  173                  0.00    147.58     65.68      0.00
  177                 66.31    147.17     60.30      0.00
  179                  0.00    147.14     60.29      0.00
  181                  0.00    147.20     60.31      0.00
  183                  0.00    147.17     59.00      0.00
  184                  0.00    146.24     56.43      0.00
  185                 29.24    146.77     56.66      0.00
  187                  0.00    147.53     58.51      0.00
  189                123.03    147.77     62.29      0.00
  191                 93.37    147.91     53.26      0.00
  193                 81.29    147.99     56.33      0.00
  195                  0.00    148.06     57.44      0.00
  197                 19.43    147.95     54.14      0.00
  199                136.02    143.00     62.83      0.00
  201                 50.86    142.36     61.64      0.00
  203               3989.76    142.22     60.76      0.00
  204                  0.00    147.26     54.71      0.00
  205                 74.51    142.95     52.84      0.00
  206                  0.00    141.83     61.02      0.00
  207                 79.10    142.22     57.72      0.00
  208                  0.00    141.40     54.34      0.00
  209                  0.99    140.65     61.81      0.00
  211                  9.88    140.39     57.80      0.00
  213                 15.89    140.33     57.77      0.00
  215                105.10    140.19     57.71      0.00
  217                 27.61    140.17     58.14      0.00
  219                 47.10    140.16     59.00      0.00
  225                 25.99    140.17     57.27      0.00
  229                 73.17    139.99     56.11      0.00
  231                 18.79    139.99     58.49      0.00
  237                 17.80    140.00     54.60      0.00
  239                 50.86    139.93     55.00      0.00
  241                  0.00    139.93     55.00      0.00
  243                  4.95    139.93     54.56      0.00
  247                 80.23    139.91     52.82      0.00
  249                  0.00    139.91     52.82      0.00
  251                 27.54    139.90     47.62      0.00
  253                 62.15    139.86     45.00      0.00
  255                 46.04    139.89     48.92      0.00
  257                  0.00    153.67     59.22      0.00
  259                  0.00    153.27     55.58      0.00
  261                  0.00    151.83     65.79      0.00
  263                  0.00    151.68     65.72      0.00
  265                  0.00    149.25     64.67      0.00
  267                  0.00    147.98     55.02      0.00
  269                  0.00    148.09     64.17      0.00
  271                  0.00    147.31     61.23      0.00
  273                  0.00    142.95     58.48      0.00
  275                  0.00    142.35     57.35      0.00
  River           -13125.38    220.00      0.00      0.00  Reservoir
  Lake                 0.00    167.00      0.00      0.00  Reservoir
  1                  771.05    145.28      5.80      0.00  Tank
  2                  -59.51    139.93     10.15      0.00  Tank
  3                 2602.19    158.25     12.67      0.00  Tank
   
   
  Link Results at 0:15:00 hrs:
  ----------------------------------------------
                       Flow  Velocity  Headloss
  Link                  gpm       fps   /1000ft
  ----------------------------------------------
  20               -2602.19      0.11      0.00
  40                -771.05      0.03      0.00
  50                  59.51      0.00      0.00
  60               13125.38      9.31      8.89
  101                  0.00      0.00      0.00
  103                181.97      0.29      0.03
  105               -398.51      1.13      0.46
  107                 54.40      0.15      0.01
  109                 30.12      0.05      0.00
  111               -233.68      0.66      0.17
  112                513.46      1.46      0.74
  113                  6.59      0.02      0.00
  114                131.74      0.84      0.43
  115                 -7.89      0.05      0.00
  116                115.52      0.33      0.05
  117                607.23      1.72      1.01
  119               -712.49      2.02      1.35
  120               1099.90      3.12      3.02
  121                989.18      2.81      2.48
  122                354.01      2.26      2.67
  123               9523.13      4.32      1.63
  125              13125.38      5.96      2.96
  129               3200.79      2.27      0.75
  131               2948.90      2.09      0.64
  133              -2602.19      2.66      1.24
  135                326.58      0.23      0.01
  137                 48.74      0.08      0.00
  145                277.84      1.77      1.70
  147                271.13      1.73      1.63
  149               -590.32      3.77      6.88
  151               -583.25      3.72      6.73
  153                330.42      0.94      0.33
  155                361.92      1.03      0.39
  159               -371.66      1.05      0.41
  161               -402.52      2.57      3.39
  163               -149.54      0.42      0.08
  169                199.90      1.28      0.93
  171                417.69      1.18      0.50
  173               7804.76      3.54      1.13
  175               7745.72      3.52      1.11
  177               7698.61      3.49      1.10
  179               7445.38      3.38      1.04
  180                  2.96      0.01      0.00
  181                  2.96      0.01      0.00
  183               7246.40      3.29      0.98
  185                -16.60      0.11      0.01
  186                355.64      2.27      2.69
  187               6656.34      3.02      0.84
  189               4375.44      1.99      0.39
  191              -2236.05      1.59      0.38
  193              -1763.80      1.25      0.25
  195                630.56      1.79      1.08
  197                564.24      1.60      0.88
  199               -206.81      0.59      0.14
  201               -771.05      2.19      1.57
  202                509.40      3.25      5.24
  203                183.00      1.17      0.79
  204                509.40      1.45      0.73
  205                355.64      1.01      0.37
  207                389.81      1.11      0.44
  209                138.54      0.88      0.47
  211                573.46      1.63      0.91
  213                217.10      0.62      0.15
  215                236.22      0.67      0.18
  217               -218.51      0.62      0.15
  219               -235.22      0.67      0.17
  221                235.22      1.50      1.25
  223                 91.96      0.26      0.03
  225                111.38      0.32      0.04
  229               4375.44      3.10      1.15
  231               4106.68      2.91      1.02
  233               3989.76      2.83      1.12
  235                132.74      0.38      0.06
  237                464.74      1.32      0.61
  238                554.58      1.57      0.85
  239                168.94      0.48      0.09
  240                554.58      1.57      0.85
  241                554.58      1.57      0.85
  243                553.59      0.88      0.21
  245                297.21      0.47      0.07
  247                205.80      0.33      0.03
  249                100.71      0.16      0.01
  251                 47.10      0.10      0.00
  257                 25.99      0.07      0.00
  261                 75.52      0.48      0.15
  263                 18.79      0.05      0.00
  269                246.49      0.70      0.19
  271                 16.43      0.10      0.01
  273                212.26      0.60      0.14
  275                 63.52      0.18      0.02
  277                  4.95      0.01      0.00
  281                 58.58      0.24      0.03
  283                 97.88      0.28      0.03
  285                -56.55      0.16      0.01
  287                 34.90      0.14      0.01
  289                 59.51      0.24      0.03
  291                 62.15      0.25      0.04
  293                -13.79      0.09      0.01
  295                 41.33      0.12      0.01
  297                464.73      2.97      4.42
  299                223.31      1.43      1.14
  301                223.31      1.43      1.14
  303                241.42      1.54      1.31
  305                142.50      0.40      0.07
  307                383.92      1.09      0.43
  309                185.28      1.18      0.80
  311                 50.94      0.14      0.01
  313                415.16      1.18      0.50
  315              -2394.36      1.70      0.44
  317                102.88      0.66      0.27
  319                 29.86      0.08      0.00
  321               7431.67      3.37      1.03
  323                 66.06      0.19      0.02
  325                158.30      1.01      0.60
  329              13125.38      5.96      3.00
  330                  0.00      0.00      0.00
  333                 -0.00      0.00      0.00
  10                   0.00      0.00      0.00  Pump
  335              13125.39      0.00    -93.73  Pump
   
   
  Node Results at 0:20:00 hrs:
  --------------------------------------------------------
                     Demand      Head  Pressure  Chemical
  Node                  gpm        ft       psi      mg/L
  --------------------------------------------------------
  10                   0.00    147.84      0.36      0.00
  15                 583.25    130.52     42.69      0.00
  20                   0.00    158.33     12.71      0.00
  35                1763.80    147.26     58.39      0.00
  40                   0.00    145.37      5.84      0.00
  50                   0.00    139.91     10.14      0.00
  60                   0.00    209.06     90.59      0.00
  601                  0.00    302.82    131.21      0.00
  61                   0.00    302.82    131.21      0.00
  101                216.54    147.84     45.86      0.00
  103                151.85    147.80     45.41      0.00
  105                154.32    149.01     52.22      0.00
  107                 62.29    148.99     55.03      0.00
  109                263.80    147.80     55.24      0.00
  111                161.81    148.14     59.86      0.00
  113                 22.81    148.14     63.32      0.00
  115                 59.39    149.00     58.49      0.00
  117                134.19    151.95     59.95      0.00
  119                200.79    158.80     67.94      0.00
  120                  0.00    156.59     67.85      0.00
  121                 47.46    162.07     71.09      0.00
  123                  0.00    166.50     67.38      0.00
  125                 51.98    161.37     65.16      0.00
  127                 20.13    159.30     44.76      0.00
  129                  0.00    159.29     46.92      0.00
  131                 48.74    159.27     66.41      0.00
  139                  6.71    154.60     53.56      0.00
  141                 11.23    151.26     63.81      0.00
  143                  7.07    141.62     63.32      0.00
  145                 31.50    152.40     65.60      0.00
  147                  9.75    153.25     58.39      0.00
  149                 30.86    153.61     59.63      0.00
  151                164.71    157.06     53.54      0.00
  153                 50.35    157.15     39.41      0.00
  157                 59.04    156.45     62.11      0.00
  159                 47.10    153.21     63.79      0.00
  161                 18.01    151.00     63.70      0.00
  163                 10.74    150.56     63.07      0.00
  164                  0.00    150.56     63.07      0.00
  166                  2.96    150.56     66.10      0.00
  167                 16.60    148.74     66.62      0.00
  169                  0.00    148.74     66.62      0.00
  171                 44.85    147.67     65.72      0.00
  173                  0.00    147.65     65.71      0.00
  177                 66.31    147.24     60.33      0.00
  179                  0.00    147.21     60.32      0.00
  181                  0.00    147.27     60.34      0.00
  183                  0.00    147.24     59.03      0.00
  184                  0.00    146.31     56.46      0.00
  185                 29.24    146.83     56.69      0.00
  187                  0.00    147.60     58.54      0.00
  189                123.03    147.83     62.32      0.00
  191                 93.37    147.98     53.29      0.00
  193                 81.29    148.06     56.36      0.00
  195                  0.00    148.12     57.47      0.00
  197                 19.43    148.02     54.17      0.00
  199                136.02    143.05     62.85      0.00
  201                 50.86    142.41     61.66      0.00
  203               3989.76    142.28     60.78      0.00
  204                  0.00    147.33     54.74      0.00
  205                 74.51    143.01     52.87      0.00
  206                  0.00    141.87     61.04      0.00
  207                 79.10    142.26     57.74      0.00
  208                  0.00    141.43     54.35      0.00
  209                  0.99    140.66     61.82      0.00
  211                  9.88    140.40     57.80      0.00
  213                 15.89    140.34     57.78      0.00
  215                105.10    140.19     57.71      0.00
  217                 27.61    140.18     58.14      0.00
  219                 47.10    140.17     59.00      0.00
  225                 25.99    140.17     57.27      0.00
  229                 73.17    139.99     56.11      0.00
  231                 18.79    139.99     58.49      0.00
  237                 17.80    139.99     54.59      0.00
  239                 50.86    139.92     54.99      0.00
  241                  0.00    139.92     54.99      0.00
  243                  4.95    139.92     54.56      0.00
  247                 80.23    139.90     52.82      0.00
  249                  0.00    139.90     52.82      0.00
  251                 27.54    139.89     47.62      0.00
  253                 62.15    139.84     44.99      0.00
  255                 46.04    139.88     48.91      0.00
  257                  0.00    153.74     59.25      0.00
  259                  0.00    153.34     55.61      0.00
  261                  0.00    151.90     65.82      0.00
  263                  0.00    151.75     65.75      0.00
  265                  0.00    149.32     64.70      0.00
  267                  0.00    148.05     55.05      0.00
  269                  0.00    148.16     64.20      0.00
  271                  0.00    147.38     61.26      0.00
  273                  0.00    143.01     58.50      0.00
  275                  0.00    142.41     57.37      0.00
  River           -13122.98    220.00      0.00      0.00  Reservoir
  Lake                 0.00    167.00      0.00      0.00  Reservoir
  1                  766.30    145.37      5.84      0.00  Tank
  2                  -53.07    139.91     10.14      0.00  Tank
  3                 2598.10    158.33     12.71      0.00  Tank
   
   
  Link Results at 0:20:00 hrs:
  ----------------------------------------------
                       Flow  Velocity  Headloss
  Link                  gpm       fps   /1000ft
  ----------------------------------------------
  20               -2598.10      0.11      0.00
  40                -766.30      0.03      0.00
  50                  53.07      0.00      0.00
  60               13122.98      9.31      8.88
  101                  0.00      0.00      0.00
  103                182.01      0.29      0.03
  105               -398.56      1.13      0.46
  107                 54.44      0.15      0.01
  109                 30.17      0.05      0.00
  111               -233.63      0.66      0.17
  112                513.58      1.46      0.74
  113                  6.68      0.02      0.00
  114                131.77      0.84      0.43
  115                 -7.85      0.05      0.00
  116                115.64      0.33      0.05
  117                607.32      1.72      1.01
  119               -712.60      2.02      1.35
  120               1100.04      3.12      3.02
  121                989.31      2.81      2.48
  122                354.06      2.26      2.67
  123               9524.64      4.32      1.63
  125              13122.98      5.96      2.96
  129               3196.81      2.27      0.75
  131               2944.89      2.09      0.64
  133              -2598.10      2.65      1.23
  135                326.66      0.23      0.01
  137                 48.74      0.08      0.00
  145                277.93      1.77      1.71
  147                271.21      1.73      1.63
  149               -590.32      3.77      6.88
  151               -583.25      3.72      6.73
  153                330.33      0.94      0.33
  155                361.83      1.03      0.39
  159               -371.58      1.05      0.41
  161               -402.44      2.57      3.38
  163               -149.58      0.42      0.08
  169                199.94      1.28      0.93
  171                417.56      1.18      0.50
  173               7806.25      3.54      1.13
  175               7747.21      3.52      1.11
  177               7700.11      3.49      1.10
  179               7446.86      3.38      1.04
  180                  2.96      0.01      0.00
  181                  2.96      0.01      0.00
  183               7247.91      3.29      0.98
  185                -16.60      0.11      0.01
  186                355.92      2.27      2.70
  187               6658.02      3.02      0.84
  189               4381.04      1.99      0.39
  191              -2232.13      1.58      0.38
  193              -1763.80      1.25      0.25
  195                626.62      1.78      1.07
  197                560.31      1.59      0.87
  199               -205.99      0.58      0.14
  201               -766.30      2.17      1.55
  202                510.24      3.26      5.25
  203                183.56      1.17      0.79
  204                510.24      1.45      0.73
  205                355.92      1.01      0.37
  207                389.55      1.11      0.44
  209                138.68      0.89      0.47
  211                573.29      1.63      0.90
  213                217.24      0.62      0.15
  215                236.25      0.67      0.18
  217               -218.58      0.62      0.15
  219               -235.23      0.67      0.17
  221                235.23      1.50      1.25
  223                 92.03      0.26      0.03
  225                111.46      0.32      0.04
  229               4381.04      3.11      1.15
  231               4110.74      2.92      1.02
  233               3989.76      2.83      1.12
  235                134.28      0.38      0.06
  237                467.05      1.32      0.62
  238                561.02      1.59      0.87
  239                173.08      0.49      0.10
  240                561.02      1.59      0.87
  241                561.02      1.59      0.87
  243                560.03      0.89      0.21
  245                298.76      0.48      0.07
  247                205.80      0.33      0.03
  249                100.71      0.16      0.01
  251                 47.10      0.10      0.00
  257                 25.99      0.07      0.00
  261                 77.06      0.49      0.16
  263                 18.79      0.05      0.00
  269                251.39      0.71      0.20
  271                 14.89      0.10      0.01
  273                218.70      0.62      0.15
  275                 65.94      0.19      0.02
  277                  4.95      0.01      0.00
  281                 60.99      0.25      0.03
  283                101.91      0.29      0.04
  285                -58.08      0.16      0.01
  287                 38.84      0.16      0.02
  289                 53.07      0.22      0.03
  291                 62.15      0.25      0.04
  293                -16.29      0.10      0.01
  295                 43.83      0.12      0.01
  297                464.79      2.97      4.42
  299                223.34      1.43      1.14
  301                223.34      1.43      1.14
  303                241.45      1.54      1.31
  305                142.53      0.40      0.07
  307                383.98      1.09      0.43
  309                185.25      1.18      0.80
  311                 51.01      0.14      0.01
  313                415.00      1.18      0.50
  315              -2390.42      1.70      0.44
  317                102.96      0.66      0.27
  319                 31.32      0.09      0.00
  321               7433.16      3.37      1.03
  323                 70.13      0.20      0.02
  325                158.29      1.01      0.60
  329              13122.98      5.96      3.00
  330                  0.00      0.00      0.00
  333                 -0.00      0.00      0.00
  10                   0.00      0.00      0.00  Pump
  335              13122.98      0.00    -93.75  Pump
   
   
  Node Results at 0:25:00 hrs:
  --------------------------------------------------------
                     Demand      Head  Pressure  Chemical
  Node                  gpm        ft       psi      mg/L
  --------------------------------------------------------
  10                   0.00    147.91      0.39      0.00
  15                 583.25    130.59     42.72      0.00
  20                   0.00    158.41     12.74      0.00
  35                1763.80    147.33     58.42      0.00
  40                   0.00    145.46      5.87      0.00
  50                   0.00    139.89     10.13      0.00
  60                   0.00    209.07     90.59      0.00
  601                  0.00    302.84    131.22      0.00
  61                   0.00    302.84    131.22      0.00
  101                216.54    147.91     45.89      0.00
  103                151.85    147.87     45.44      0.00
  105                154.32    149.08     52.25      0.00
  107                 62.29    149.06     55.06      0.00
  109                263.80    147.87     55.27      0.00
  111                161.81    148.21     59.89      0.00
  113                 22.81    148.21     63.35      0.00
  115                 59.39    149.07     58.52      0.00
  117                134.19    152.02     59.98      0.00
  119                200.79    158.87     67.97      0.00
  120                  0.00    156.66     67.88      0.00
  121                 47.46    162.14     71.12      0.00
  123                  0.00    166.57     67.41      0.00
  125                 51.98    161.45     65.19      0.00
  127                 20.13    159.38     44.79      0.00
  129                  0.00    159.37     46.96      0.00
  131                 48.74    159.35     66.45      0.00
  139                  6.71    154.68     53.59      0.00
  141                 11.23    151.33     63.84      0.00
  143                  7.07    141.70     63.35      0.00
  145                 31.50    152.48     65.63      0.00
  147                  9.75    153.32     58.42      0.00
  149                 30.86    153.68     59.66      0.00
  151                164.71    157.13     53.57      0.00
  153                 50.35    157.22     39.44      0.00
  157                 59.04    156.52     62.14      0.00
  159                 47.10    153.28     63.82      0.00
  161                 18.01    151.07     63.73      0.00
  163                 10.74    150.63     63.10      0.00
  164                  0.00    150.63     63.10      0.00
  166                  2.96    150.63     66.13      0.00
  167                 16.60    148.81     66.64      0.00
  169                  0.00    148.81     66.65      0.00
  171                 44.85    147.74     65.75      0.00
  173                  0.00    147.72     65.74      0.00
  177                 66.31    147.30     60.36      0.00
  179                  0.00    147.28     60.35      0.00
  181                  0.00    147.34     60.37      0.00
  183                  0.00    147.31     59.06      0.00
  184                  0.00    146.38     56.49      0.00
  185                 29.24    146.90     56.72      0.00
  187                  0.00    147.67     58.57      0.00
  189                123.03    147.90     62.35      0.00
  191                 93.37    148.05     53.32      0.00
  193                 81.29    148.13     56.39      0.00
  195                  0.00    148.19     57.50      0.00
  197                 19.43    148.09     54.20      0.00
  199                136.02    143.11     62.88      0.00
  201                 50.86    142.47     61.69      0.00
  203               3989.76    142.33     60.81      0.00
[...]
  219                 57.43    139.21     58.59      0.00
  225                 31.69    139.22     56.86      0.00
  229                 89.21    139.25     55.79      5.53
  231                 22.91    139.24     58.17      0.00
  237                 21.70    139.31     54.30      2.24
  239                 62.01    139.29     54.72      8.25
  241                  0.00    139.29     54.72     17.29
  243                  6.03    139.29     54.29      0.00
  247                 97.83    139.29     52.56      0.79
  249                  0.00    139.29     52.56      3.47
  251                 33.58    139.29     47.36      0.00
  253                 75.78    139.28     44.75      0.00
  255                 56.14    139.34     48.67      0.00
  257                  0.00    152.61     58.76      0.00
  259                  0.00    152.21     55.12      0.00
  261                  0.00    150.75     65.32      0.00
  263                  0.00    150.59     65.25      0.00
  265                  0.00    149.06     64.59      0.00
  267                  0.00    147.55     54.83      0.00
  269                  0.00    147.93     64.10      0.00
  271                  0.00    147.46     61.30      0.00
  273                  0.00    141.97     58.05      0.00
  275                  0.00    141.23     56.86      0.00
  River           -13203.32    220.00      0.00      0.00  Reservoir
  Lake                 0.00    167.00      0.00      0.00  Reservoir
  1                 -263.48    147.68      6.84      0.00  Tank
  2                 -227.69    139.70     10.05      0.00  Tank
  3                 1054.16    159.94     13.40      0.00  Tank
   
   
  Link Results at 23:55:00 hrs:
  ----------------------------------------------
                       Flow  Velocity  Headloss
  Link                  gpm       fps   /1000ft
  ----------------------------------------------
  20               -1054.16      0.04      0.00
  40                 263.48      0.01      0.00
  50                 227.69      0.01      0.00
  60               13203.32      9.36      8.98
  101                  0.00      0.00      0.00
  103                144.61      0.23      0.02
  105               -408.64      1.16      0.48
  107                 15.00      0.04      0.00
  109                -40.54      0.06      0.00
  111               -362.18      1.03      0.39
  112                450.02      1.28      0.58
  113               -126.01      0.36      0.05
  114                106.60      0.68      0.29
  115                -60.95      0.39      0.10
  116                -47.22      0.13      0.01
  117                611.80      1.74      1.02
  119               -689.99      1.96      1.27
  120               1117.01      3.17      3.11
  121                997.02      2.83      2.52
  122                348.40      2.22      2.59
  123               9165.20      4.16      1.52
  125              11192.13      5.08      2.20
  129               1620.67      1.15      0.21
  131               1367.06      0.97      0.15
  133              -1054.16      1.08      0.23
  135                288.35      0.20      0.01
  137                 59.42      0.09      0.00
  145                228.93      1.46      1.19
  147                220.74      1.41      1.11
  149               -369.06      2.36      2.88
  151               -360.44      2.30      2.76
  153                162.01      0.46      0.09
  155                200.41      0.57      0.13
  159               -212.30      0.60      0.14
  161               -249.93      1.60      1.40
  163               -128.82      0.37      0.06
  169                190.22      1.21      0.84
  171                321.93      0.91      0.31
  173               7481.43      3.40      1.04
  175               7409.44      3.36      1.03
  177               7352.01      3.34      1.01
  179               7086.09      3.22      0.94
  180                  3.61      0.01      0.00
  181                  3.61      0.01      0.00
  183               6866.13      3.12      0.89
  185                -20.24      0.13      0.01
  186                319.32      2.04      2.21
  187               6263.84      2.84      0.75
  189               4848.79      2.20      0.47
  191              -1360.36      0.96      0.15
  193              -1557.32      1.10      0.20
  195                -76.19      0.22      0.02
  197               -157.05      0.45      0.08
  199                106.43      0.30      0.04
  201                263.48      0.75      0.21
  202                561.94      3.59      6.28
  203                278.27      1.78      1.71
  204                561.94      1.59      0.87
  205                319.32      0.91      0.31
  207                171.85      0.49      0.10
  209                178.90      1.14      0.75
  211                582.05      1.65      0.93
  213                140.43      0.40      0.07
  215                 39.47      0.11      0.01
  217               -261.41      0.74      0.21
  219               -243.96      0.69      0.19
  221                243.96      1.56      1.34
  223                 -7.14      0.02      0.00
  225                 16.55      0.05      0.00
  229               4848.79      3.44      1.39
  231               4549.74      3.23      1.23
  233               4474.50      3.17      1.39
  235                133.20      0.38      0.06
  237                490.05      1.39      0.68
  238                521.07      1.48      0.76
  239                127.47      0.36      0.06
  240                521.07      1.48      0.76
  241                521.07      1.48      0.76
  243                519.86      0.83      0.19
  245                328.27      0.52      0.08
  247                250.94      0.40      0.05
  249                122.79      0.20      0.01
  251                 57.43      0.12      0.01
  257                 31.69      0.09      0.00
  261                 57.96      0.37      0.09
  263                 22.91      0.06      0.00
  269                179.54      0.51      0.11
  271                 54.16      0.35      0.08
  273                103.68      0.29      0.04
  275                 19.36      0.05      0.00
  277                  6.03      0.02      0.00
  281                 13.33      0.05      0.00
  283                 22.32      0.06      0.00
  285                -25.75      0.07      0.00
  287                -58.75      0.24      0.03
  289                227.69      0.93      0.40
  291                 75.78      0.31      0.05
  293                 37.01      0.24      0.04
  295                 -3.43      0.01      0.00
  297                468.40      2.99      4.48
  299                225.07      1.44      1.15
  301                225.07      1.44      1.15
  303                243.33      1.55      1.33
  305                143.41      0.41      0.07
  307                386.74      1.10      0.44
  309                203.26      1.30      0.96
  311               -163.79      0.46      0.09
  313                461.28      1.31      0.60
  315              -1481.13      1.05      0.18
  317                114.24      0.73      0.33
  319                 18.96      0.05      0.00
  321               7069.38      3.21      0.94
  323                 13.23      0.04      0.00
  325                120.77      0.77      0.36
  329              13203.32      5.99      3.03
  330                  0.00      0.00      0.00
  333                 -0.00      0.00      0.00
  10                   0.00      0.00      0.00  Pump
  335              13203.32      0.00    -93.04  Pump
   
   
  Node Results at 24:00:00 hrs:
  --------------------------------------------------------
                     Demand      Head  Pressure  Chemical
  Node                  gpm        ft       psi      mg/L
  --------------------------------------------------------
  10                   0.00    149.46      1.07      0.00
  15                 583.25    132.11     43.38      0.00
  20                   0.00    159.97     13.42      0.00
  35                1763.80    148.92     59.11      0.00
  40                   0.00    147.64      6.82      0.00
  50                   0.00    139.63     10.02      0.00
  60                   0.00    209.14     90.62      0.00
  601                  0.00    303.35    131.44      0.00
  61                   0.00    303.35    131.44      0.00
  101                216.54    149.46     46.56      0.00
  103                151.85    149.42     46.11      0.00
  105                154.32    150.63     52.92      0.00
  107                 62.29    150.61     55.73      0.00
  109                263.80    149.42     55.95      0.00
  111                161.81    149.77     60.56      0.00
  113                 22.81    149.77     64.03      0.00
  115                 59.39    150.62     59.20      0.00
  117                134.19    153.55     60.64      0.00
  119                200.79    160.38     68.63      0.00
  120                  0.00    158.18     68.54      0.00
  121                 47.46    163.63     71.77      0.00
  123                  0.00    168.03     68.04      0.00
  125                 51.98    162.95     65.84      0.00
  127                 20.13    160.92     45.46      0.00
  129                  0.00    160.91     47.62      0.00
  131                 48.74    160.89     67.11      0.00
  139                  6.71    156.20     54.25      0.00
  141                 11.23    152.85     64.50      0.00
  143                  7.07    143.22     64.01      0.00
  145                 31.50    153.99     66.29      0.00
  147                  9.75    154.84     59.08      0.00
  149                 30.86    155.20     60.31      0.00
  151                164.71    158.64     54.22      0.00
  153                 50.35    158.73     40.09      0.00
  157                 59.04    158.04     62.80      0.00
  159                 47.10    154.81     64.48      0.00
  161                 18.01    152.62     64.40      0.00
  163                 10.74    152.17     63.77      0.00
  164                  0.00    152.17     63.77      0.28
  166                  2.96    152.17     66.80      0.00
  167                 16.60    150.36     67.32      0.00
  169                  0.00    150.36     67.32      0.00
  171                 44.85    149.29     66.42      0.00
  173                  0.00    149.27     66.41      0.00
  177                 66.31    148.91     61.05      0.00
  179                  0.00    148.89     61.05      0.00
  181                  0.00    148.93     61.06      0.00
  183                  0.00    148.91     59.76      0.00
  184                  0.00    147.89     57.15      0.00
  185                 29.24    148.45     57.39      0.00
  187                  0.00    149.23     59.24      0.00
  189                123.03    149.47     63.03      0.00
  191                 93.37    149.61     53.99      0.00
  193                 81.29    149.69     57.06      0.00
  195                  0.00    149.75     58.17      0.00
  197                 19.43    149.65     54.88      0.00
  199                136.02    144.46     63.46      0.00
  201                 50.86    143.80     62.26      0.00
  203               3989.76    143.66     61.38      0.00
  204                  0.00    148.96     55.44      0.00
  205                 74.51    144.39     53.46      0.00
  206                  0.00    142.93     61.50      0.00
  207                 79.10    143.50     58.28      0.00
  208                  0.00    142.29     54.72      0.00
  209                  0.99    141.17     62.04      0.00
  211                  9.88    140.79     57.97      0.00
  213                 15.89    140.71     57.94      0.00
  215                105.10    140.57     57.88      0.52
  217                 27.61    140.56     58.30     24.54
  219                 47.10    140.55     59.17      0.00
  225                 25.99    140.55     57.43      0.00
  229                 73.17    140.06     56.14      4.40
  231                 18.79    140.06     58.52      0.00
  237                 17.80    140.06     54.62      0.39
  239                 50.86    139.88     54.98      8.27
  241                  0.00    139.88     54.98     16.02
  243                  4.95    139.88     54.54      0.00
  247                 80.23    139.83     52.79      0.91
  249                  0.00    139.83     52.79      3.78
  251                 27.54    139.79     47.57      0.00
  253                 62.15    139.63     44.90      0.00
  255                 46.04    139.67     48.82      0.00
  257                  0.00    155.34     59.94      0.00
  259                  0.00    154.94     56.30      0.00
  261                  0.00    153.51     66.52      0.00
  263                  0.00    153.36     66.45      0.00
  265                  0.00    150.94     65.40      0.00
  267                  0.00    149.68     55.76      0.00
  269                  0.00    149.79     64.90      0.00
  271                  0.00    149.03     61.98      0.00
  273                  0.00    144.40     59.10      0.00
  275                  0.00    143.78     57.97      0.00
  River           -13071.10    220.00      0.00      0.00  Reservoir
  Lake                 0.00    167.00      0.00      0.00  Reservoir
  1                  620.31    147.64      6.82      0.00  Tank
  2                   72.20    139.63     10.02      0.00  Tank
  3                 2566.93    159.97     13.42      0.00  Tank
   
   
  Link Results at 24:00:00 hrs:
  ----------------------------------------------
                       Flow  Velocity  Headloss
  Link                  gpm       fps   /1000ft
  ----------------------------------------------
  20               -2566.93      0.11      0.00
  40                -620.31      0.03      0.00
  50                 -72.20      0.00      0.00
  60               13071.10      9.27      8.82
  101                  0.00      0.00      0.00
  103                181.23      0.29      0.03
  105               -397.77      1.13      0.46
  107                 53.81      0.15      0.01
  109                 29.38      0.05      0.00
  111               -234.42      0.66      0.17
  112                511.67      1.45      0.73
  113                  4.91      0.01      0.00
  114                131.26      0.84      0.43
  115                 -8.48      0.05      0.00
  116                113.36      0.32      0.04
  117                605.90      1.72      1.00
  119               -710.80      2.02      1.35
  120               1097.60      3.11      3.01
  121                987.13      2.80      2.47
  122                353.30      2.26      2.66
  123               9504.34      4.31      1.63
  125              13071.10      5.93      2.94
  129               3166.00      2.25      0.73
  131               2914.16      2.07      0.63
  133              -2566.93      2.62      1.21
  135                327.11      0.23      0.01
  137                 48.74      0.08      0.00
  145                278.37      1.78      1.71
  147                271.66      1.73      1.63
  149               -590.32      3.77      6.88
  151               -583.25      3.72      6.73
  153                329.89      0.94      0.33
  155                361.39      1.03      0.38
  159               -371.14      1.05      0.40
  161               -402.00      2.57      3.38
  163               -149.50      0.42      0.08
  169                199.85      1.28      0.93
  171                417.20      1.18      0.50
  173               7788.75      3.54      1.13
  175               7729.71      3.51      1.11
  177               7682.60      3.49      1.10
  179               7430.15      3.37      1.03
  180                  2.96      0.01      0.00
  181                  2.96      0.01      0.00
  183               7232.21      3.28      0.98
  185                -16.60      0.11      0.01
  186                358.99      2.29      2.74
  187               6648.87      3.02      0.84
  189               4489.51      2.04      0.41
  191              -2114.51      1.50      0.35
  193              -1763.80      1.25      0.25
  195                506.99      1.44      0.72
  197                440.67      1.25      0.56
  199               -179.64      0.51      0.11
  201               -620.31      1.76      1.05
  202                527.04      3.36      5.58
  203                197.29      1.26      0.90
  204                527.04      1.50      0.77
  205                358.99      1.02      0.38
  207                376.93      1.07      0.42
  209                141.85      0.91      0.49
  211                566.74      1.61      0.89
  213                217.14      0.62      0.15
  215                231.34      0.66      0.17
  217               -219.40      0.62      0.15
  219               -234.45      0.67      0.17
  221                234.45      1.50      1.24
  223                 91.11      0.26      0.03
  225                110.53      0.31      0.04
  229               4489.51      3.18      1.20
  231               4186.60      2.97      1.06
  233               3989.76      2.83      1.12
  235                166.89      0.47      0.09
  237                514.99      1.46      0.74
  238                686.30      1.95      1.26
  239                250.41      0.71      0.20
  240                686.30      1.95      1.26
  241                686.30      1.95      1.26
  243                685.31      1.09      0.31
  245                329.68      0.53      0.08
  247                205.80      0.33      0.03
  249                100.71      0.16      0.01
  251                 47.10      0.10      0.00
  257                 25.99      0.07      0.00
  261                107.99      0.69      0.30
  263                 18.79      0.05      0.00
  269                345.74      0.98      0.35
  271                -16.04      0.10      0.01
  273                343.98      0.98      0.35
  275                112.85      0.32      0.04
  277                  4.95      0.01      0.00
  281                107.90      0.44      0.10
  283                180.27      0.51      0.11
  285                -89.83      0.25      0.03
  287                117.50      0.48      0.12
  289                -72.20      0.29      0.05
  291                 62.15      0.25      0.04
  293                -62.90      0.40      0.11
  295                 90.44      0.26      0.03
  297                463.76      2.96      4.40
  299                222.84      1.42      1.13
  301                222.84      1.42      1.13
  303                240.92      1.54      1.31
  305                142.14      0.40      0.07
  307                383.06      1.09      0.43
  309                184.23      1.18      0.80
  311                 47.11      0.13      0.01
  313                410.47      1.16      0.49
  315              -2270.79      1.61      0.40
  317                104.42      0.67      0.28
  319                 62.46      0.18      0.01
  321               7416.44      3.37      1.03
  323                145.99      0.41      0.07
  325                156.28      1.00      0.59
  329              13071.10      5.93      2.97
  330                  0.00      0.00      0.00
  333                 -0.00      0.00      0.00
  10                   0.00      0.00      0.00  Pump
  335              13071.10      0.00    -94.21  Pump
   
  Analysis ended Wed May 06 17:00:56 2020
