  Page 1                                    Wed May 06 17:04:35 2020

  ******************************************************************
  *                           E P A N E T                          *
  *                   Hydraulic and Water Quality                  *
  *                   Analysis for Pipe Networks                   *
  *                         Version 2.00.12                        *
  ******************************************************************
  
  Analysis begun Wed May 06 17:04:35 2020

   
  Hydraulic Status:
  -----------------------------------------------------------------------
     0:00:00: Balanced after 5 trials
     0:00:00: Reservoir River is emptying
     0:00:00: Reservoir Lake is closed
     0:00:00: Tank 1 is filling at 13.10 ft
     0:00:00: Tank 2 is emptying at 23.50 ft
     0:00:00: Tank 3 is filling at 29.00 ft
   
     0:05:00: Balanced after 2 trials
   
     0:10:00: Balanced after 2 trials
   
     0:15:00: Balanced after 2 trials
   
     0:20:00: Balanced after 2 trials
   
     0:25:00: Balanced after 2 trials
   
     0:30:00: Balanced after 2 trials
   
     0:35:00: Balanced after 2 trials
   
     0:40:00: Balanced after 2 trials
   
     0:45:00: Balanced after 2 trials
   
     0:50:00: Balanced after 2 trials
   
     0:55:00: Balanced after 2 trials
   
     1:00:00: Pump 10 changed by timer control
     1:00:00: Balanced after 7 trials
     1:00:00: Reservoir Lake is emptying
     1:00:00: Pump 10 changed from closed to open
   
     1:05:00: Balanced after 2 trials
   
     1:10:00: Balanced after 2 trials
   
     1:15:00: Balanced after 2 trials
   
     1:20:00: Balanced after 2 trials
   
     1:25:00: Balanced after 2 trials
   
     1:30:00: Balanced after 2 trials
   
     1:35:00: Balanced after 2 trials
   
     1:40:00: Balanced after 2 trials
   
     1:45:00: Balanced after 2 trials
   
     1:50:00: Balanced after 2 trials
   
     1:55:00: Balanced after 2 trials
   
     2:00:00: Balanced after 4 trials
     2:00:00: Tank 2 is filling at 21.27 ft
   
     2:05:00: Balanced after 1 trials
   
     2:10:00: Balanced after 1 trials
   
     2:15:00: Balanced after 1 trials
   
     2:20:00: Balanced after 1 trials
   
     2:25:00: Balanced after 1 trials
   
     2:30:00: Balanced after 1 trials
   
     2:35:00: Balanced after 1 trials
   
     2:40:00: Balanced after 1 trials
   
     2:45:00: Balanced after 1 trials
   
     2:50:00: Balanced after 1 trials
   
     2:55:00: Balanced after 1 trials
   
     3:00:00: Balanced after 3 trials
   
     3:05:00: Balanced after 1 trials
   
     3:10:00: Balanced after 1 trials
   
     3:15:00: Balanced after 1 trials
   
     3:20:00: Balanced after 1 trials
   
     3:25:00: Balanced after 1 trials
   
     3:30:00: Balanced after 1 trials
   
     3:35:00: Balanced after 1 trials
   
     3:40:00: Balanced after 1 trials
   
     3:45:00: Balanced after 1 trials
   
     3:50:00: Balanced after 1 trials
   
     3:55:00: Balanced after 1 trials
   
     4:00:00: Balanced after 3 trials
   
     4:05:00: Balanced after 1 trials
   
     4:10:00: Balanced after 1 trials
   
     4:15:00: Balanced after 1 trials
   
     4:17:21: Pump 335 changed by Tank 1 control
     4:17:21: Pipe 330 changed by Tank 1 control
     4:17:21: Balanced after 4 trials
     4:17:21: Pipe 330 changed from closed to open
     4:17:21: Pump 335 changed from open to closed
   
     4:20:00: Balanced after 1 trials
   
     4:25:00: Balanced after 2 trials
   
     4:30:00: Balanced after 2 trials
   
     4:35:00: Balanced after 2 trials
   
     4:40:00: Balanced after 2 trials
   
     4:45:00: Balanced after 2 trials
   
     4:50:00: Balanced after 2 trials
   
     4:55:00: Balanced after 2 trials
   
     5:00:00: Balanced after 3 trials
     5:00:00: Tank 3 is emptying at 34.41 ft
   
     5:05:00: Balanced after 2 trials
   
     5:10:00: Balanced after 2 trials
   
     5:15:00: Balanced after 2 trials
     5:15:00: Tank 3 is filling at 34.40 ft
   
     5:20:00: Balanced after 2 trials
   
     5:25:00: Balanced after 2 trials
   
     5:30:00: Balanced after 2 trials
   
     5:35:00: Balanced after 2 trials
   
     5:40:00: Balanced after 2 trials
   
     5:45:00: Balanced after 2 trials
   
     5:50:00: Balanced after 2 trials
   
     5:55:00: Balanced after 2 trials
   
     6:00:00: Balanced after 3 trials
   
     6:05:00: Balanced after 1 trials
   
     6:10:00: Balanced after 1 trials
   
     6:15:00: Balanced after 1 trials
   
     6:20:00: Balanced after 1 trials
   
     6:25:00: Balanced after 1 trials
   
     6:30:00: Balanced after 1 trials
   
     6:35:00: Balanced after 1 trials
   
     6:40:00: Balanced after 1 trials
   
     6:45:00: Balanced after 1 trials
   
     6:50:00: Balanced after 1 trials
   
     6:55:00: Balanced after 1 trials
   
     7:00:00: Balanced after 3 trials
   
     7:05:00: Balanced after 1 trials
   
     7:10:00: Balanced after 1 trials
   
     7:15:00: Balanced after 1 trials
   
     7:20:00: Balanced after 1 trials
   
     7:25:00: Balanced after 1 trials
   
     7:30:00: Balanced after 1 trials
   
     7:35:00: Balanced after 1 trials
   
     7:40:00: Balanced after 1 trials
   
     7:45:00: Balanced after 1 trials
   
     7:50:00: Balanced after 1 trials
   
     7:55:00: Balanced after 1 trials
   
     8:00:00: Balanced after 3 trials
   
     8:05:00: Balanced after 1 trials
   
     8:10:00: Balanced after 1 trials
   
     8:15:00: Balanced after 1 trials
   
     8:20:00: Balanced after 1 trials
   
     8:25:00: Balanced after 1 trials
   
     8:30:00: Balanced after 1 trials
   
     8:35:00: Balanced after 1 trials
   
     8:40:00: Balanced after 1 trials
   
     8:45:00: Balanced after 1 trials
   
     8:50:00: Balanced after 1 trials
   
     8:55:00: Balanced after 1 trials
   
     9:00:00: Balanced after 4 trials
     9:00:00: Tank 3 is emptying at 35.35 ft
   
     9:05:00: Balanced after 2 trials
   
     9:10:00: Balanced after 2 trials
   
     9:15:00: Balanced after 2 trials
   
     9:20:00: Balanced after 2 trials
   
     9:25:00: Balanced after 2 trials
   
     9:30:00: Balanced after 2 trials
   
     9:35:00: Balanced after 2 trials
   
     9:40:00: Balanced after 2 trials
   
     9:45:00: Balanced after 2 trials
   
     9:50:00: Balanced after 2 trials
   
     9:55:00: Balanced after 2 trials
   
    10:00:00: Balanced after 4 trials
    10:00:00: Tank 1 is emptying at 22.63 ft
    10:00:00: Tank 2 is emptying at 28.02 ft
   
    10:05:00: Balanced after 1 trials
   
    10:10:00: Balanced after 1 trials
   
    10:15:00: Balanced after 1 trials
   
    10:20:00: Balanced after 1 trials
   
    10:25:00: Balanced after 1 trials
   
    10:30:00: Balanced after 1 trials
   
    10:35:00: Balanced after 1 trials
   
    10:40:00: Balanced after 1 trials
   
    10:45:00: Balanced after 1 trials
   
    10:50:00: Balanced after 1 trials
   
    10:55:00: Balanced after 1 trials
   
    11:00:00: Balanced after 4 trials
    11:00:00: Tank 1 is filling at 22.22 ft
    11:00:00: Tank 2 is filling at 27.86 ft
   
    11:05:00: Balanced after 2 trials
   
    11:10:00: Balanced after 2 trials
   
    11:15:00: Balanced after 2 trials
   
    11:20:00: Balanced after 2 trials
   
    11:25:00: Balanced after 2 trials
   
    11:30:00: Balanced after 2 trials
   
    11:35:00: Balanced after 2 trials
   
    11:40:00: Balanced after 2 trials
   
    11:45:00: Balanced after 2 trials
   
    11:50:00: Balanced after 2 trials
   
    11:55:00: Balanced after 2 trials
   
    12:00:00: Balanced after 3 trials
   
    12:05:00: Balanced after 2 trials
   
    12:10:00: Balanced after 2 trials
   
    12:15:00: Balanced after 2 trials
   
    12:20:00: Balanced after 2 trials
   
    12:25:00: Balanced after 2 trials
   
    12:30:00: Balanced after 2 trials
   
    12:35:00: Balanced after 2 trials
   
    12:40:00: Balanced after 2 trials
   
    12:45:00: Balanced after 2 trials
   
    12:50:00: Balanced after 2 trials
   
    12:55:00: Balanced after 2 trials
   
    13:00:00: Balanced after 3 trials
   
    13:05:00: Balanced after 2 trials
   
    13:10:00: Balanced after 2 trials
   
    13:15:00: Balanced after 2 trials
   
    13:20:00: Balanced after 2 trials
   
    13:25:00: Balanced after 2 trials
   
    13:30:00: Balanced after 2 trials
   
    13:35:00: Balanced after 2 trials
   
    13:40:00: Balanced after 2 trials
   
    13:45:00: Balanced after 2 trials
   
    13:50:00: Balanced after 2 trials
   
    13:55:00: Balanced after 2 trials
   
    14:00:00: Balanced after 3 trials
    14:00:00: Tank 1 is emptying at 22.91 ft
   
    14:05:00: Balanced after 1 trials
   
    14:10:00: Balanced after 1 trials
   
    14:15:00: Balanced after 1 trials
   
    14:20:00: Balanced after 1 trials
   
    14:25:00: Balanced after 1 trials
   
    14:30:00: Balanced after 1 trials
   
    14:35:00: Balanced after 1 trials
   
    14:40:00: Balanced after 1 trials
    14:40:00: Tank 2 is closed at 28.98 ft
   
    14:45:00: Balanced after 1 trials
    14:45:00: Tank 2 is emptying at 28.98 ft
   
    14:50:00: Balanced after 1 trials
   
    14:55:00: Balanced after 1 trials
   
    15:00:00: Pump 10 changed by timer control
    15:00:00: Balanced after 5 trials
    15:00:00: Reservoir Lake is closed
    15:00:00: Pump 10 changed from open to closed
   
    15:05:00: Balanced after 1 trials
   
    15:10:00: Balanced after 1 trials
   
    15:15:00: Balanced after 1 trials
   
    15:20:00: Balanced after 1 trials
   
    15:25:00: Balanced after 1 trials
   
    15:30:00: Balanced after 1 trials
   
    15:35:00: Balanced after 1 trials
   
    15:40:00: Balanced after 1 trials
   
    15:45:00: Balanced after 1 trials
   
    15:50:00: Balanced after 1 trials
   
    15:55:00: Balanced after 1 trials
   
    16:00:00: Balanced after 4 trials
    16:00:00: Tank 2 is filling at 28.05 ft
   
    16:05:00: Balanced after 2 trials
   
    16:10:00: Balanced after 2 trials
   
    16:15:00: Balanced after 2 trials
   
    16:20:00: Balanced after 2 trials
   
    16:25:00: Balanced after 2 trials
   
    16:30:00: Balanced after 2 trials
   
    16:35:00: Balanced after 2 trials
   
    16:40:00: Balanced after 2 trials
   
    16:45:00: Balanced after 2 trials
   
    16:50:00: Balanced after 2 trials
   
    16:55:00: Balanced after 2 trials
   
    17:00:00: Balanced after 2 trials
    17:00:00: Tank 2 is emptying at 28.34 ft
   
    17:05:00: Balanced after 1 trials
   
    17:10:00: Balanced after 1 trials
   
    17:15:00: Balanced after 1 trials
   
    17:20:00: Balanced after 1 trials
   
    17:25:00: Balanced after 1 trials
   
    17:30:00: Balanced after 1 trials
   
    17:35:00: Balanced after 1 trials
   
    17:40:00: Balanced after 1 trials
   
    17:45:00: Balanced after 1 trials
   
    17:50:00: Balanced after 1 trials
   
    17:55:00: Balanced after 1 trials
   
    18:00:00: Balanced after 3 trials
    18:00:00: Tank 2 is filling at 28.19 ft
   
    18:05:00: Balanced after 2 trials
   
    18:10:00: Balanced after 2 trials
   
    18:15:00: Balanced after 2 trials
   
    18:20:00: Balanced after 2 trials
   
    18:25:00: Balanced after 2 trials
   
    18:30:00: Balanced after 2 trials
   
    18:35:00: Balanced after 2 trials
   
    18:40:00: Balanced after 2 trials
   
    18:45:00: Balanced after 2 trials
   
    18:50:00: Balanced after 2 trials
   
    18:55:00: Balanced after 2 trials
   
    19:00:00: Balanced after 3 trials
    19:00:00: Tank 2 is emptying at 28.39 ft
   
    19:05:00: Balanced after 1 trials
   
    19:10:00: Balanced after 1 trials
   
    19:15:00: Balanced after 1 trials
   
    19:20:00: Balanced after 1 trials
   
    19:25:00: Balanced after 1 trials
   
    19:30:00: Balanced after 1 trials
   
    19:35:00: Balanced after 1 trials
   
    19:40:00: Balanced after 1 trials
   
    19:45:00: Balanced after 1 trials
   
    19:50:00: Balanced after 1 trials
   
    19:55:00: Balanced after 1 trials
   
    20:00:00: Balanced after 3 trials
   
    20:05:00: Balanced after 2 trials
   
    20:10:00: Balanced after 2 trials
   
    20:15:00: Balanced after 2 trials
   
    20:20:00: Balanced after 2 trials
   
    20:25:00: Balanced after 2 trials
   
    20:30:00: Balanced after 2 trials
   
    20:35:00: Balanced after 2 trials
   
    20:40:00: Balanced after 2 trials
   
    20:45:00: Balanced after 2 trials
   
    20:50:00: Balanced after 1 trials
   
    20:55:00: Balanced after 1 trials
   
    21:00:00: Balanced after 3 trials
   
    21:05:00: Balanced after 1 trials
   
    21:10:00: Balanced after 1 trials
   
    21:15:00: Balanced after 1 trials
   
    21:20:00: Balanced after 1 trials
   
    21:25:00: Balanced after 1 trials
   
    21:30:00: Balanced after 1 trials
   
    21:35:00: Balanced after 1 trials
   
    21:40:00: Balanced after 1 trials
   
    21:45:00: Balanced after 1 trials
   
    21:46:14: Pump 335 changed by Tank 1 control
    21:46:14: Pipe 330 changed by Tank 1 control
    21:46:14: Balanced after 5 trials
    21:46:14: Tank 1 is filling at 17.10 ft
    21:46:14: Tank 3 is filling at 29.76 ft
    21:46:14: Pipe 330 changed from open to closed
    21:46:14: Pump 335 changed from closed to open
   
    21:50:00: Balanced after 1 trials
   
    21:55:00: Balanced after 1 trials
   
    22:00:00: Balanced after 4 trials
    22:00:00: Tank 1 is emptying at 17.23 ft
   
    22:05:00: Balanced after 2 trials
   
    22:10:00: Balanced after 2 trials
   
    22:15:00: Balanced after 2 trials
   
    22:20:00: Balanced after 2 trials
   
    22:25:00: Balanced after 2 trials
   
    22:30:00: Balanced after 2 trials
   
    22:35:00: Balanced after 2 trials
   
    22:40:00: Balanced after 2 trials
   
    22:45:00: Balanced after 2 trials
   
    22:50:00: Balanced after 2 trials
   
    22:55:00: Balanced after 2 trials
   
    23:00:00: Balanced after 3 trials
    23:00:00: Tank 1 is filling at 16.89 ft
   
    23:05:00: Balanced after 2 trials
   
    23:10:00: Balanced after 2 trials
   
    23:15:00: Balanced after 2 trials
   
    23:20:00: Balanced after 2 trials
   
    23:25:00: Balanced after 2 trials
   
    23:30:00: Balanced after 2 trials
   
    23:35:00: Balanced after 2 trials
   
    23:40:00: Balanced after 2 trials
   
    23:45:00: Balanced after 2 trials
   
    23:50:00: Balanced after 2 trials
   
    23:55:00: Balanced after 2 trials
   
    24:00:00: Balanced after 3 trials
   
   
  Node Results at 0:00:00 hrs:
  --------------------------------------------------------
                     Demand      Head  Pressure  Chemical
  Node                  gpm        ft       psi      mg/L
  --------------------------------------------------------
  10                   0.00    146.22     -0.34      0.00
  15                 608.68    127.11     41.21      0.00
  20                   0.00    158.00     12.57      0.00
  35                1659.37    146.53     58.07      0.00
  40                   0.00    145.00      5.68      0.00
  50                   0.00    140.00     10.18      0.00
  60                   0.00    209.03     90.57      0.00
  601                  0.00    302.57    131.10      0.00
  61                   0.00    302.57    131.10      0.00
  101                256.43    146.22     45.16      0.00
  103                179.82    146.19     44.71      0.00
  105                182.75    147.50     51.56      0.00
  107                 73.76    147.49     54.38      0.00
  109                312.39    146.19     54.55      0.00
  111                191.62    146.84     59.29      0.00
  113                 27.01    146.89     62.78      0.00
  115                 70.33    147.61     57.89      0.00
  117                158.91    150.63     59.38      0.00
  119                237.78    158.00     67.59      0.00
  120                  0.00    155.61     67.43      0.00
  121                 56.20    161.35     70.78      0.00
  123                  0.00    165.80     67.08      0.00
  125                 61.56    160.71     64.87      0.00
  127                 23.84    158.84     44.56      0.00
  129                  0.00    158.83     46.72      0.00
  131                 57.71    158.81     66.21      0.00
  139                  7.95    153.42     53.05      0.00
  141                 13.30    149.59     63.08      0.00
  143                  8.37    139.13     62.23      0.00
  145                 37.30    150.78     64.90      0.00
  147                 11.54    151.69     57.71      0.00
  149                 36.54    152.07     58.96      0.00
  151                195.05    155.87     53.02      0.00
  153                 59.63    155.96     38.89      0.00
  157                 69.92    155.64     61.76      0.00
  159                 55.78    152.40     63.44      0.00
  161                 21.33    150.20     63.35      0.00
  163                 12.72    149.76     62.72      0.00
  164                  0.00    149.76     62.72      0.00
  166                  3.51    149.76     65.76      0.00
  167                 19.66    147.96     66.28      0.00
  169                  0.00    147.96     66.28      0.00
  171                 53.11    146.92     65.39      0.00
  173                  0.00    146.90     65.39      0.00
  177                 78.53    146.50     60.01      0.00
  179                  0.00    146.47     60.00      0.00
  181                  0.00    146.54     60.03      0.00
  183                  0.00    146.48     58.70      0.00
  184                  0.00    145.47     56.10      0.00
  185                 34.63    145.96     56.31      0.00
  187                  0.00    146.57     58.09      0.00
  189                145.69    146.86     61.90      0.00
  191                110.56    146.80     52.78      0.00
  193                 96.27    146.89     55.85      0.00
  195                  0.00    146.96     56.96      0.00
  197                 23.00    146.81     53.64      0.00
  199                161.08    142.43     62.58      0.00
  201                 60.22    141.82     61.41      0.00
  203               3874.61    141.69     60.53      0.00
  204                  0.00    146.36     54.32      0.00
  205                 88.24    142.37     52.59      0.00
  206                  0.00    141.32     60.80      0.00
  207                 93.68    141.67     57.49      0.00
  208                  0.00    140.91     54.13      0.00
  209                  1.17    140.22     61.62      0.00
  211                 11.70    139.99     57.62      0.00
  213                 18.82    139.91     57.59      0.00
  215                124.46    139.71     57.50      0.00
  217                 32.70    139.69     57.93      0.00
  219                 55.78    139.68     58.79      0.00
  225                 30.78    139.69     57.06      0.00
  229                 86.64    139.68     55.97      0.00
  231                 22.25    139.67     58.35      0.00
  237                 21.07    139.73     54.48      0.00
  239                 60.22    139.70     54.90      0.00
  241                  0.00    139.70     54.90      0.00
  243                  5.86    139.70     54.47      0.00
  247                 95.01    139.70     52.73      0.00
  249                  0.00    139.70     52.73      0.00
  251                 32.62    139.70     47.53      0.00
  253                 73.60    139.67     44.92      0.00
  255                 54.53    139.72     48.84      0.00
  257                  0.00    152.56     58.74      0.00
  259                  0.00    152.13     55.09      0.00
  261                  0.00    150.59     65.25      0.00
  263                  0.00    150.43     65.18      0.00
  265                  0.00    148.53     64.36      0.00
  267                  0.00    146.92     54.56      0.00
  269                  0.00    147.28     63.82      0.00
  271                  0.00    146.64     60.94      0.00
  273                  0.00    142.38     58.23      0.00
  275                  0.00    141.81     57.11      0.00
  River           -13146.57    220.00      0.00      0.00  Reservoir
  Lake                 0.00    167.00      0.00      0.00  Reservoir
  1                  678.96    145.00      5.68      0.00  Tank
  2                 -195.56    140.00     10.18      0.00  Tank
  3                 2405.55    158.00     12.57      0.00  Tank
   
   
  Link Results at 0:00:00 hrs:
  ----------------------------------------------
                       Flow  Velocity  Headloss
  Link                  gpm       fps   /1000ft
  ----------------------------------------------
  20               -2405.55      0.10      0.00
  40                -678.96      0.03      0.00
  50                 195.56      0.01      0.00
  60               13146.57      9.32      8.91
  101                  0.00      0.00      0.00
  103                161.95      0.26      0.02
  105               -418.38      1.19      0.50
  107                 27.88      0.08      0.00
  109                -17.87      0.03      0.00
  111               -330.26      0.94      0.33
  112                485.61      1.38      0.67
  113                -93.33      0.26      0.03
  114                119.90      0.77      0.36
  115                -45.89      0.29      0.06
  116                 -0.44      0.00      0.00
  117                629.01      1.78      1.07
  119               -721.73      2.05      1.39
  120               1146.41      3.25      3.26
  121               1027.15      2.91      2.66
  122                363.23      2.32      2.80
  123               9665.37      4.39      1.68
  125              13146.56      5.97      2.97
  129               3061.76      2.17      0.69
  131               2787.22      1.98      0.58
  133              -2405.55      2.46      1.07
  135                357.83      0.25      0.01
  137                 57.71      0.09      0.00
  145                300.12      1.92      1.97
  147                292.16      1.86      1.87
  149               -617.05      3.94      7.47
  151               -608.68      3.89      7.28
  153                338.18      0.96      0.34
  155                375.48      1.07      0.41
  159               -387.03      1.10      0.44
  161               -423.57      2.70      3.72
  163               -153.36      0.44      0.08
  169                212.99      1.36      1.04
  171                465.26      1.32      0.61
  173               7815.92      3.55      1.13
  175               7746.00      3.52      1.11
  177               7690.22      3.49      1.10
  179               7418.27      3.37      1.03
  180                  3.51      0.01      0.00
  181                  3.51      0.01      0.00
  183               7191.81      3.26      0.97
  185                -19.66      0.13      0.01
  186                316.66      2.02      2.17
  187               6550.09      2.97      0.82
  189               4316.75      1.96      0.38
  191              -2180.23      1.55      0.37
  193              -1659.37      1.18      0.22
  195                663.06      1.88      1.18
  197                584.53      1.66      0.94
  199                -94.43      0.27      0.03
  201               -678.96      1.93      1.24
  202                492.74      3.15      4.92
  203                210.71      1.34      1.02
  204                492.74      1.40      0.68
  205                316.66      0.90      0.30
  207                305.14      0.87      0.28
  209                153.63      0.98      0.57
  211                622.06      1.76      1.05
  213                163.03      0.46      0.09
  215                124.60      0.35      0.05
  217               -239.54      0.68      0.18
  219               -250.62      0.71      0.20
  221                250.62      1.60      1.41
  223                 34.06      0.10      0.00
  225                 57.06      0.16      0.01
  229               4316.75      3.06      1.12
  231               4007.99      2.84      0.97
  233               3874.61      2.75      1.06
  235                147.67      0.42      0.07
  237                452.73      1.28      0.58
  238                531.66      1.51      0.79
  239                172.61      0.49      0.10
  240                531.66      1.51      0.79
  241                531.66      1.51      0.79
  243                530.49      0.85      0.19
  245                323.98      0.52      0.08
  247                243.72      0.39      0.05
  249                119.26      0.19      0.01
  251                 55.78      0.12      0.01
  257                 30.78      0.09      0.00
  261                 61.44      0.39      0.10
  263                 22.25      0.06      0.00
  269                194.81      0.55      0.12
  271                 47.45      0.30      0.06
  273                126.28      0.36      0.05
  275                 28.37      0.08      0.00
  277                  5.86      0.02      0.00
  281                 22.51      0.09      0.01
  283                 37.69      0.11      0.01
  285                -31.38      0.09      0.00
  287                -41.12      0.17      0.02
  289                195.56      0.80      0.30
  291                 73.60      0.30      0.05
  293                 26.31      0.17      0.02
  295                  6.31      0.02      0.00
  297                482.50      3.08      4.74
  299                231.81      1.48      1.22
  301                231.81      1.48      1.22
  303                250.68      1.60      1.41
  305                146.52      0.42      0.07
  307                397.20      1.13      0.46
  309                210.24      1.34      1.02
  311                -85.64      0.24      0.03
  313                479.86      1.36      0.65
  315              -2322.43      1.65      0.41
  317                 99.45      0.63      0.25
  319                 48.22      0.14      0.01
  321               7402.04      3.36      1.02
  323                 73.16      0.21      0.02
  325                142.20      0.91      0.49
  329              13146.56      5.97      3.01
  330                  0.00      0.00      0.00
  333                 -0.00      0.00      0.00
  10                   0.00      0.00      0.00  Pump
  335              13146.57      0.00    -93.54  Pump
   
   
  Node Results at 0:05:00 hrs:
  --------------------------------------------------------
                     Demand      Head  Pressure  Chemical
  Node                  gpm        ft       psi      mg/L
  --------------------------------------------------------
  10                   0.00    146.27     -0.31      0.00
  15                 608.68    127.18     41.24      0.00
  20                   0.00    158.08     12.60      0.00
  35                1659.37    146.59     58.10      0.00
  40                   0.00    145.08      5.71      0.00
  50                   0.00    139.93     10.15      0.00
  60                   0.00    209.03     90.57      0.00
  601                  0.00    302.59    131.11      0.00
  61                   0.00    302.59    131.11      0.00
  101                256.43    146.27     45.18      0.00
  103                179.82    146.25     44.74      0.00
  105                182.75    147.56     51.59      0.00
  107                 73.76    147.55     54.40      0.00
  109                312.39    146.25     54.57      0.00
  111                191.62    146.90     59.32      0.00
  113                 27.01    146.95     62.81      0.00
  115                 70.33    147.67     57.92      0.00
  117                158.91    150.69     59.40      0.00
  119                237.78    158.06     67.62      0.00
  120                  0.00    155.68     67.45      0.00
  121                 56.20    161.42     70.81      0.00
  123                  0.00    165.87     67.10      0.00
  125                 61.56    160.78     64.90      0.00
  127                 23.84    158.91     44.59      0.00
  129                  0.00    158.90     46.75      0.00
  131                 57.71    158.88     66.24      0.00
  139                  7.95    153.49     53.08      0.00
  141                 13.30    149.65     63.11      0.00
  143                  8.37    139.20     62.26      0.00
  145                 37.30    150.85     64.93      0.00
  147                 11.54    151.76     57.74      0.00
  149                 36.54    152.14     58.99      0.00
  151                195.05    155.93     53.05      0.00
  153                 59.63    156.03     38.92      0.00
  157                 69.92    155.70     61.79      0.00
  159                 55.78    152.46     63.46      0.00
  161                 21.33    150.26     63.37      0.00
  163                 12.72    149.82     62.75      0.00
  164                  0.00    149.82     62.75      0.00
  166                  3.51    149.82     65.78      0.00
  167                 19.66    148.01     66.30      0.00
  169                  0.00    148.02     66.30      0.00
  171                 53.11    146.98     65.42      0.00
  173                  0.00    146.96     65.41      0.00
  177                 78.53    146.56     60.04      0.00
  179                  0.00    146.53     60.03      0.00
  181                  0.00    146.59     60.05      0.00
  183                  0.00    146.54     58.73      0.00
  184                  0.00    145.52     56.12      0.00
  185                 34.63    146.01     56.33      0.00
  187                  0.00    146.63     58.12      0.00
  189                145.69    146.92     61.93      0.00
  191                110.56    146.86     52.80      0.00
  193                 96.27    146.95     55.87      0.00
  195                  0.00    147.02     56.99      0.00
  197                 23.00    146.86     53.67      0.00
  199                161.08    142.47     62.60      0.00
  201                 60.22    141.86     61.42      0.00
  203               3874.61    141.73     60.54      0.00
  204                  0.00    146.41     54.34      0.00
  205                 88.24    142.41     52.61      0.00
  206                  0.00    141.34     60.81      0.00
  207                 93.68    141.70     57.50      0.00
  208                  0.00    140.92     54.13      0.00
  209                  1.17    140.21     61.62      0.00
  211                 11.70    139.97     57.61      0.00
  213                 18.82    139.89     57.58      0.00
  215                124.46    139.69     57.50      0.00
  217                 32.70    139.67     57.92      0.00
  219                 55.78    139.66     58.78      0.00
  225                 30.78    139.67     57.05      0.00
  229                 86.64    139.65     55.96      0.00
  231                 22.25    139.64     58.34      0.00
  237                 21.07    139.69     54.46      0.00
  239                 60.22    139.66     54.88      0.00
  241                  0.00    139.66     54.88      0.00
  243                  5.86    139.66     54.45      0.00
  247                 95.01    139.66     52.72      0.00
  249                  0.00    139.66     52.72      0.00
  251                 32.62    139.66     47.52      0.00
  253                 73.60    139.62     44.90      0.00
  255                 54.53    139.68     48.82      0.00
  257                  0.00    152.62     58.76      0.00
  259                  0.00    152.19     55.11      0.00
  261                  0.00    150.65     65.27      0.00
  263                  0.00    150.49     65.21      0.00
  265                  0.00    148.59     64.38      0.00
  267                  0.00    146.98     54.59      0.00
  269                  0.00    147.34     63.84      0.00
  271                  0.00    146.70     60.97      0.00
  273                  0.00    142.42     58.24      0.00
  275                  0.00    141.85     57.13      0.00
  River           -13144.43    220.00      0.00      0.00  Reservoir
  Lake                 0.00    167.00      0.00      0.00  Reservoir
  1                  673.48    145.08      5.71      0.00  Tank
  2                 -187.09    139.93     10.15      0.00  Tank
  3                 2400.43    158.08     12.60      0.00  Tank
   
   
  Link Results at 0:05:00 hrs:
  ----------------------------------------------
                       Flow  Velocity  Headloss
  Link                  gpm       fps   /1000ft
  ----------------------------------------------
  20               -2400.43      0.10      0.00
  40                -673.48      0.03      0.00
  50                 187.09      0.01      0.00
  60               13144.43      9.32      8.91
  101                  0.00      0.00      0.00
  103                162.04      0.26      0.02
  105               -418.47      1.19      0.50
  107                 27.93      0.08      0.00
  109                -17.78      0.03      0.00
  111               -330.17      0.94      0.33
  112                485.81      1.38      0.67
  113                -93.20      0.26      0.03
  114                119.97      0.77      0.36
  115                -45.83      0.29      0.06
  116                 -0.25      0.00      0.00
  117                629.16      1.78      1.07
  119               -721.94      2.05      1.39
  120               1146.68      3.25      3.27
  121               1027.39      2.91      2.66
  122                363.33      2.32      2.80
  123               9668.10      4.39      1.68
  125              13144.43      5.97      2.97
  129               3056.80      2.17      0.69
  131               2782.20      1.97      0.58
  133              -2400.43      2.45      1.07
  135                357.93      0.25      0.01
  137                 57.71      0.09      0.00
  145                300.21      1.92      1.97
  147                292.26      1.87      1.87
  149               -617.05      3.94      7.47
  151               -608.68      3.89      7.28
  153                338.08      0.96      0.34
  155                375.39      1.06      0.41
  159               -386.93      1.10      0.44
  161               -423.47      2.70      3.72
  163               -153.41      0.44      0.08
  169                213.04      1.36      1.04
  171                465.11      1.32      0.61
  173               7818.54      3.55      1.13
  175               7748.62      3.52      1.11
  177               7692.84      3.49      1.10
  179               7420.87      3.37      1.03
  180                  3.51      0.01      0.00
  181                  3.51      0.01      0.00
  183               7194.43      3.27      0.97
  185                -19.66      0.13      0.01
  186                317.13      2.02      2.18
  187               6552.89      2.97      0.82
  189               4324.09      1.96      0.38
  191              -2175.69      1.54      0.37
  193              -1659.37      1.18      0.22
  195                658.54      1.87      1.17
  197                580.01      1.65      0.92
  199                -93.47      0.27      0.03
  201               -673.48      1.91      1.22
  202                493.87      3.15      4.95
  203                211.37      1.35      1.03
  204                493.87      1.40      0.69
  205                317.13      0.90      0.30
  207                304.84      0.86      0.28
  209                153.82      0.98      0.57
  211                621.88      1.76      1.05
  213                163.31      0.46      0.09
  215                124.68      0.35      0.05
  217               -239.66      0.68      0.18
  219               -250.64      0.71      0.20
  221                250.64      1.60      1.41
  223                 34.21      0.10      0.00
  225                 57.22      0.16      0.01
  229               4324.09      3.07      1.12
  231               4013.31      2.85      0.98
  233               3874.61      2.75      1.06
  235                149.69      0.42      0.08
  237                455.78      1.29      0.59
  238                540.13      1.53      0.81
  239                178.02      0.51      0.10
  240                540.13      1.53      0.81
  241                540.13      1.53      0.81
  243                538.95      0.86      0.20
  245                325.73      0.52      0.08
  247                243.72      0.39      0.05
  249                119.26      0.19      0.01
  251                 55.78      0.12      0.01
  257                 30.78      0.09      0.00
  261                 63.20      0.40      0.11
  263                 22.25      0.06      0.00
  269                201.52      0.57      0.13
  271                 45.69      0.29      0.06
  273                134.75      0.38      0.06
  275                 31.54      0.09      0.00
  277                  5.86      0.02      0.00
  281                 25.68      0.10      0.01
  283                 42.99      0.12      0.01
  285                -33.44      0.09      0.00
  287                -35.90      0.15      0.01
  289                187.09      0.76      0.28
  291                 73.60      0.30      0.05
  293                 23.07      0.15      0.02
  295                  9.55      0.03      0.00
  297                482.61      3.08      4.74
  299                231.87      1.48      1.22
  301                231.87      1.48      1.22
  303                250.74      1.60      1.41
  305                146.55      0.42      0.07
  307                397.29      1.13      0.46
  309                210.21      1.34      1.02
  311                -85.53      0.24      0.03
  313                479.67      1.36      0.65
  315              -2317.91      1.64      0.41
  317                 99.54      0.64      0.25
  319                 50.15      0.14      0.01
  321               7404.64      3.36      1.02
  323                 78.48      0.22      0.02
  325                142.21      0.91      0.49
  329              13144.43      5.97      3.00
  330                  0.00      0.00      0.00
  333                 -0.00      0.00      0.00
  10                   0.00      0.00      0.00  Pump
  335              13144.43      0.00    -93.56  Pump
   
   
  Node Results at 0:10:00 hrs:
  --------------------------------------------------------
                     Demand      Head  Pressure  Chemical
  Node                  gpm        ft       psi      mg/L
  --------------------------------------------------------
  10                   0.00    146.33     -0.29      0.00
  15                 608.68    127.25     41.27      0.00
  20                   0.00    158.15     12.63      0.00
  35                1659.37    146.64     58.12      0.00
  40                   0.00    145.16      5.75      0.00
  50                   0.00    139.87     10.13      0.00
  60                   0.00    209.03     90.57      0.00
  601                  0.00    302.62    131.12      0.00
  61                   0.00    302.62    131.12      0.00
  101                256.43    146.33     45.21      0.00
  103                179.82    146.30     44.76      0.00
  105                182.75    147.62     51.61      0.00
  107                 73.76    147.61     54.43      0.00
  109                312.39    146.31     54.60      0.00
  111                191.62    146.96     59.34      0.00
  113                 27.01    147.01     62.83      0.00
  115                 70.33    147.73     57.94      0.00
  117                158.91    150.75     59.43      0.00
  119                237.78    158.12     67.65      0.00
  120                  0.00    155.74     67.48      0.00
  121                 56.20    161.48     70.84      0.00
  123                  0.00    165.93     67.13      0.00
  125                 61.56    160.85     64.93      0.00
  127                 23.84    158.99     44.62      0.00
  129                  0.00    158.97     46.78      0.00
  131                 57.71    158.95     66.27      0.00
  139                  7.95    153.56     53.11      0.00
  141                 13.30    149.72     63.14      0.00
  143                  8.37    139.26     62.29      0.00
  145                 37.30    150.91     64.96      0.00
  147                 11.54    151.82     57.77      0.00
  149                 36.54    152.21     59.02      0.00
  151                195.05    156.00     53.08      0.00
  153                 59.63    156.09     38.95      0.00
  157                 69.92    155.76     61.82      0.00
  159                 55.78    152.52     63.49      0.00
  161                 21.33    150.32     63.40      0.00
  163                 12.72    149.88     62.77      0.00
  164                  0.00    149.88     62.77      0.00
  166                  3.51    149.88     65.81      0.00
  167                 19.66    148.07     66.33      0.00
  169                  0.00    148.07     66.33      0.00
  171                 53.11    147.03     65.44      0.00
  173                  0.00    147.01     65.43      0.00
  177                 78.53    146.62     60.06      0.00
  179                  0.00    146.59     60.05      0.00
  181                  0.00    146.65     60.08      0.00
  183                  0.00    146.60     58.75      0.00
  184                  0.00    145.57     56.14      0.00
  185                 34.63    146.07     56.36      0.00
  187                  0.00    146.69     58.14      0.00
  189                145.69    146.97     61.95      0.00
  191                110.56    146.91     52.83      0.00
  193                 96.27    147.01     55.90      0.00
  195                  0.00    147.08     57.01      0.00
  197                 23.00    146.92     53.69      0.00
  199                161.08    142.51     62.62      0.00
  201                 60.22    141.90     61.44      0.00
  203               3874.61    141.77     60.56      0.00
  204                  0.00    146.47     54.37      0.00
  205                 88.24    142.45     52.62      0.00
  206                  0.00    141.36     60.82      0.00
  207                 93.68    141.73     57.51      0.00
  208                  0.00    140.93     54.13      0.00
  209                  1.17    140.20     61.61      0.00
  211                 11.70    139.95     57.61      0.00
  213                 18.82    139.87     57.57      0.00
  215                124.46    139.67     57.49      0.00
  217                 32.70    139.65     57.91      0.00
  219                 55.78    139.64     58.77      0.00
  225                 30.78    139.65     57.04      0.00
  229                 86.64    139.62     55.95      0.00
  231                 22.25    139.61     58.33      0.00
  237                 21.07    139.66     54.45      0.00
  239                 60.22    139.63     54.87      0.00
  241                  0.00    139.62     54.87      0.00
  243                  5.86    139.62     54.43      0.00
  247                 95.01    139.62     52.70      0.00
  249                  0.00    139.62     52.70      0.00
  251                 32.62    139.62     47.50      0.00
  253                 73.60    139.58     44.88      0.00
  255                 54.53    139.63     48.80      0.00
  257                  0.00    152.68     58.79      0.00
  259                  0.00    152.25     55.14      0.00
  261                  0.00    150.71     65.30      0.00
  263                  0.00    150.55     65.23      0.00
  265                  0.00    148.65     64.41      0.00
  267                  0.00    147.04     54.61      0.00
  269                  0.00    147.39     63.87      0.00
  271                  0.00    146.76     60.99      0.00
  273                  0.00    142.46     58.26      0.00
  275                  0.00    141.89     57.15      0.00
  River           -13142.29    220.00      0.00      0.00  Reservoir
  Lake                 0.00    167.00      0.00      0.00  Reservoir
  1                  668.15    145.16      5.75      0.00  Tank
  2                 -178.85    139.87     10.13      0.00  Tank
  3                 2395.38    158.15     12.63      0.00  Tank
   
   
  Link Results at 0:10:00 hrs:
  ----------------------------------------------
                       Flow  Velocity  Headloss
  Link                  gpm       fps   /1000ft
  ----------------------------------------------
  20               -2395.38      0.10      0.00
  40                -668.15      0.03      0.00
  50                 178.85      0.01      0.00
  60               13142.29      9.32      8.91
  101                  0.00      0.00      0.00
  103                162.13      0.26      0.02
  105               -418.56      1.19      0.51
  107                 27.99      0.08      0.00
  109                -17.69      0.03      0.00
  111               -330.08      0.94      0.33
  112                486.00      1.38      0.67
  113                -93.07      0.26      0.03
  114                120.03      0.77      0.36
  115                -45.77      0.29      0.06
  116                 -0.05      0.00      0.00
  117                629.30      1.79      1.07
  119               -722.14      2.05      1.39
  120               1146.93      3.25      3.27
  121               1027.63      2.92      2.67
  122                363.42      2.32      2.80
  123               9670.76      4.39      1.68
  125              13142.29      5.97      2.96
  129               3051.91      2.16      0.68
  131               2777.25      1.97      0.57
  133              -2395.38      2.45      1.06
  135                358.02      0.25      0.01
  137                 57.71      0.09      0.00
  145                300.31      1.92      1.97
  147                292.36      1.87      1.87
  149               -617.05      3.94      7.47
  151               -608.68      3.89      7.28
  153                337.99      0.96      0.34
  155                375.29      1.06      0.41
  159               -386.83      1.10      0.44
  161               -423.38      2.70      3.72
  163               -153.47      0.44      0.08
  169                213.10      1.36      1.04
  171                464.95      1.32      0.61
  173               7821.10      3.55      1.13
  175               7751.19      3.52      1.12
  177               7695.41      3.49      1.10
  179               7423.41      3.37      1.03
  180                  3.51      0.01      0.00
  181                  3.51      0.01      0.00
  183               7196.99      3.27      0.97
  185                -19.66      0.13      0.01
  186                317.58      2.03      2.18
  187               6555.63      2.98      0.82
  189               4331.24      1.97      0.38
  191              -2171.28      1.54      0.36
  193              -1659.37      1.18      0.22
  195                654.14      1.86      1.16
  197                575.61      1.63      0.91
  199                -92.54      0.26      0.03
  201               -668.15      1.90      1.20
  202                494.96      3.16      4.97
  203                212.01      1.35      1.03
  204                494.96      1.40      0.69
  205                317.58      0.90      0.30
  207                304.55      0.86      0.28
  209                154.00      0.98      0.57
  211                621.71      1.76      1.05
  213                163.58      0.46      0.09
  215                124.76      0.35      0.05
  217               -239.78      0.68      0.18
  219               -250.67      0.71      0.20
  221                250.67      1.60      1.41
  223                 34.37      0.10      0.00
  225                 57.37      0.16      0.01
  229               4331.24      3.07      1.13
  231               4018.46      2.85      0.98
  233               3874.61      2.75      1.06
  235                151.69      0.43      0.08
  237                458.79      1.30      0.60
  238                548.37      1.56      0.83
  239                183.26      0.52      0.11
  240                548.37      1.56      0.83
  241                548.37      1.56      0.83
  243                547.19      0.87      0.20
  245                327.46      0.52      0.08
  247                243.72      0.39      0.05
  249                119.26      0.19      0.01
  251                 55.78      0.12      0.01
  257                 30.78      0.09      0.00
  261                 64.93      0.41      0.12
  263                 22.25      0.06      0.00
  269                208.02      0.59      0.14
  271                 43.96      0.28      0.06
  273                142.99      0.41      0.07
  275                 34.62      0.10      0.00
  277                  5.86      0.02      0.00
  281                 28.77      0.12      0.01
  283                 48.14      0.14      0.01
  285                -35.64      0.10      0.01
  287                -30.61      0.13      0.01
  289                178.85      0.73      0.25
  291                 73.60      0.30      0.05
  293                 20.11      0.13      0.01
  295                 12.50      0.04      0.00
  297                482.72      3.08      4.74
  299                231.92      1.48      1.22
  301                231.92      1.48      1.22
  303                250.80      1.60      1.41
  305                146.58      0.42      0.07
  307                397.38      1.13      0.46
  309                210.19      1.34      1.02
  311                -85.43      0.24      0.03
  313                479.48      1.36      0.65
  315              -2313.51      1.64      0.41
  317                 99.63      0.64      0.26
  319                 52.06      0.15      0.01
  321               7407.18      3.36      1.03
  323                 83.63      0.24      0.03
  325                142.23      0.91      0.49
  329              13142.29      5.97      3.00
  330                  0.00      0.00      0.00
  333                 -0.00      0.00      0.00
  10                   0.00      0.00      0.00  Pump
  335              13142.29      0.00    -93.58  Pump
   
   
  Node Results at 0:15:00 hrs:
  --------------------------------------------------------
                     Demand      Head  Pressure  Chemical
  Node                  gpm        ft       psi      mg/L
  --------------------------------------------------------
  10                   0.00    146.39     -0.26      0.00
  15                 608.68    127.31     41.30      0.00
  20                   0.00    158.23     12.66      0.00
  35                1659.37    146.70     58.15      0.00
  40                   0.00    145.24      5.78      0.00
  50                   0.00    139.81     10.10      0.00
  60                   0.00    209.04     90.58      0.00
  601                  0.00    302.64    131.13      0.00
  61                   0.00    302.64    131.13      0.00
  101                256.43    146.39     45.23      0.00
  103                179.82    146.36     44.79      0.00
  105                182.75    147.67     51.64      0.00
  107                 73.76    147.67     54.45      0.00
  109                312.39    146.36     54.62      0.00
  111                191.62    147.01     59.37      0.00
  113                 27.01    147.07     62.86      0.00
  115                 70.33    147.79     57.97      0.00
  117                158.91    150.81     59.45      0.00
  119                237.78    158.19     67.68      0.00
  120                  0.00    155.80     67.51      0.00
  121                 56.20    161.55     70.86      0.00
  123                  0.00    165.99     67.16      0.00
  125                 61.56    160.91     64.96      0.00
  127                 23.84    159.06     44.65      0.00
  129                  0.00    159.05     46.82      0.00
  131                 57.71    159.03     66.31      0.00
  139                  7.95    153.63     53.14      0.00
  141                 13.30    149.79     63.17      0.00
  143                  8.37    139.33     62.32      0.00
  145                 37.30    150.98     64.99      0.00
  147                 11.54    151.89     57.80      0.00
  149                 36.54    152.27     59.05      0.00
  151                195.05    156.06     53.11      0.00
  153                 59.63    156.16     38.98      0.00
  157                 69.92    155.83     61.84      0.00
  159                 55.78    152.58     63.51      0.00
  161                 21.33    150.38     63.43      0.00
  163                 12.72    149.93     62.80      0.00
  164                  0.00    149.93     62.80      0.00
  166                  3.51    149.93     65.83      0.00
  167                 19.66    148.13     66.35      0.00
  169                  0.00    148.13     66.35      0.00
  171                 53.11    147.09     65.47      0.00
  173                  0.00    147.07     65.46      0.00
  177                 78.53    146.67     60.09      0.00
  179                  0.00    146.65     60.08      0.00
  181                  0.00    146.71     60.10      0.00
  183                  0.00    146.65     58.78      0.00
  184                  0.00    145.63     56.17      0.00
  185                 34.63    146.12     56.38      0.00
  187                  0.00    146.74     58.17      0.00
  189                145.69    147.03     61.98      0.00
  191                110.56    146.97     52.85      0.00
  193                 96.27    147.07     55.92      0.00
  195                  0.00    147.14     57.04      0.00
  197                 23.00    146.98     53.72      0.00
  199                161.08    142.56     62.64      0.00
  201                 60.22    141.94     61.46      0.00
  203               3874.61    141.81     60.58      0.00
  204                  0.00    146.53     54.39      0.00
  205                 88.24    142.49     52.64      0.00
  206                  0.00    141.38     60.83      0.00
  207                 93.68    141.76     57.53      0.00
  208                  0.00    140.94     54.14      0.00
  209                  1.17    140.19     61.61      0.00
  211                 11.70    139.93     57.60      0.00
  213                 18.82    139.85     57.57      0.00
  215                124.46    139.66     57.48      0.00
  217                 32.70    139.64     57.90      0.00
  219                 55.78    139.62     58.77      0.00
  225                 30.78    139.63     57.04      0.00
  229                 86.64    139.59     55.93      0.00
  231                 22.25    139.58     58.31      0.00
  237                 21.07    139.63     54.43      0.00
  239                 60.22    139.59     54.85      0.00
  241                  0.00    139.59     54.85      0.00
  243                  5.86    139.59     54.42      0.00
  247                 95.01    139.58     52.68      0.00
  249                  0.00    139.58     52.68      0.00
  251                 32.62    139.58     47.48      0.00
  253                 73.60    139.54     44.86      0.00
  255                 54.53    139.59     48.79      0.00
  257                  0.00    152.74     58.82      0.00
  259                  0.00    152.31     55.16      0.00
  261                  0.00    150.77     65.33      0.00
  263                  0.00    150.60     65.26      0.00
  265                  0.00    148.70     64.43      0.00
  267                  0.00    147.10     54.64      0.00
  269                  0.00    147.45     63.89      0.00
  271                  0.00    146.81     61.01      0.00
  273                  0.00    142.50     58.28      0.00
  275                  0.00    141.93     57.16      0.00
  River           -13140.15    220.00      0.00      0.00  Reservoir
  Lake                 0.00    167.00      0.00      0.00  Reservoir
  1                  662.97    145.24      5.78      0.00  Tank
  2                 -170.80    139.81     10.10      0.00  Tank
  3                 2390.38    158.23     12.66      0.00  Tank
   
   
  Link Results at 0:15:00 hrs:
  ----------------------------------------------
                       Flow  Velocity  Headloss
  Link                  gpm       fps   /1000ft
  ----------------------------------------------
  20               -2390.38      0.10      0.00
  40                -662.97      0.03      0.00
  50                 170.80      0.01      0.00
  60               13140.15      9.32      8.90
  101                  0.00      0.00      0.00
  103                162.21      0.26      0.02
  105               -418.65      1.19      0.51
  107                 28.04      0.08      0.00
  109                -17.61      0.03      0.00
  111               -330.00      0.94      0.33
  112                486.20      1.38      0.67
  113                -92.94      0.26      0.03
  114                120.09      0.77      0.36
  115                -45.72      0.29      0.06
  116                  0.14      0.00      0.00
  117                629.44      1.79      1.08
  119               -722.34      2.05      1.39
  120               1147.18      3.25      3.27
  121               1027.86      2.92      2.67
  122                363.51      2.32      2.80
  123               9673.39      4.39      1.68
  125              13140.15      5.96      2.96
  129               3047.06      2.16      0.68
  131               2772.34      1.97      0.57
  133              -2390.38      2.44      1.06
  135                358.12      0.25      0.01
  137                 57.71      0.09      0.00
  145                300.41      1.92      1.97
  147                292.46      1.87      1.87
  149               -617.05      3.94      7.47
  151               -608.68      3.89      7.28
  153                337.89      0.96      0.34
  155                375.19      1.06      0.41
  159               -386.73      1.10      0.44
  161               -423.28      2.70      3.72
  163               -153.52      0.44      0.08
  169                213.15      1.36      1.04
  171                464.80      1.32      0.61
  173               7823.62      3.55      1.13
  175               7753.71      3.52      1.12
  177               7697.92      3.49      1.10
  179               7425.90      3.37      1.03
  180                  3.51      0.01      0.00
  181                  3.51      0.01      0.00
  183               7199.51      3.27      0.97
  185                -19.66      0.13      0.01
  186                318.03      2.03      2.19
  187               6558.31      2.98      0.82
  189               4338.21      1.97      0.38
  191              -2166.98      1.54      0.36
  193              -1659.37      1.18      0.22
  195                649.85      1.84      1.14
  197                571.33      1.62      0.90
  199                -91.64      0.26      0.03
  201               -662.97      1.88      1.18
  202                496.03      3.17      4.99
  203                212.63      1.36      1.04
  204                496.03      1.41      0.69
  205                318.03      0.90      0.30
  207                304.27      0.86      0.28
  209                154.18      0.98      0.57
  211                621.54      1.76      1.05
  213                163.85      0.46      0.09
  215                124.84      0.35      0.05
  217               -239.90      0.68      0.18
  219               -250.70      0.71      0.20
  221                250.70      1.60      1.41
  223                 34.52      0.10      0.00
  225                 57.52      0.16      0.01
  229               4338.21      3.08      1.13
  231               4023.46      2.85      0.98
  233               3874.61      2.75      1.06
  235                153.67      0.44      0.08
  237                461.74      1.31      0.61
  238                556.41      1.58      0.86
  239                188.35      0.53      0.12
  240                556.41      1.58      0.86
  241                556.41      1.58      0.86
  243                555.24      0.89      0.21
  245                329.18      0.53      0.08
  247                243.72      0.39      0.05
  249                119.26      0.19      0.01
  251                 55.78      0.12      0.01
  257                 30.78      0.09      0.00
  261                 66.64      0.43      0.12
  263                 22.25      0.06      0.00
  269                214.36      0.61      0.15
  271                 42.25      0.27      0.05
  273                151.04      0.43      0.08
  275                 37.64      0.11      0.01
  277                  5.86      0.02      0.00
  281                 31.78      0.13      0.01
  283                 53.17      0.15      0.01
  285                -37.90      0.11      0.01
  287                -25.34      0.10      0.01
  289                170.80      0.70      0.23
  291                 73.60      0.30      0.05
  293                 17.34      0.11      0.01
  295                 15.28      0.04      0.00
  297                482.83      3.08      4.74
  299                231.97      1.48      1.22
  301                231.97      1.48      1.22
  303                250.86      1.60      1.41
  305                146.61      0.42      0.07
  307                397.47      1.13      0.46
  309                210.17      1.34      1.02
  311                -85.33      0.24      0.03
  313                479.30      1.36      0.65
  315              -2309.22      1.64      0.41
  317                 99.72      0.64      0.26
  319                 53.95      0.15      0.01
  321               7409.67      3.36      1.03
  323                 88.63      0.25      0.03
  325                142.24      0.91      0.49
  329              13140.15      5.96      3.00
  330                  0.00      0.00      0.00
  333                 -0.00      0.00      0.00
  10                   0.00      0.00      0.00  Pump
  335              13140.15      0.00    -93.60  Pump
   
   
  Node Results at 0:20:00 hrs:
  --------------------------------------------------------
                     Demand      Head  Pressure  Chemical
  Node                  gpm        ft       psi      mg/L
  --------------------------------------------------------
  10                   0.00    146.45     -0.24      0.00
  15                 608.68    127.38     41.33      0.00
  20                   0.00    158.30     12.70      0.00
  35                1659.37    146.76     58.17      0.00
  40                   0.00    145.32      5.81      0.00
  50                   0.00    139.75     10.07      0.00
  60                   0.00    209.04     90.58      0.00
  601                  0.00    302.66    131.14      0.00
  61                   0.00    302.66    131.14      0.00
  101                256.43    146.45     45.26      0.00
  103                179.82    146.42     44.81      0.00
  105                182.75    147.73     51.66      0.00
  107                 73.76    147.73     54.48      0.00
  109                312.39    146.42     54.65      0.00
  111                191.62    147.07     59.39      0.00
  113                 27.01    147.12     62.88      0.00
  115                 70.33    147.85     58.00      0.00
  117                158.91    150.87     59.48      0.00
  119                237.78    158.25     67.70      0.00
  120                  0.00    155.86     67.53      0.00
  121                 56.20    161.61     70.89      0.00
  123                  0.00    166.06     67.19      0.00
  125                 61.56    160.98     64.99      0.00
  127                 23.84    159.13     44.69      0.00
  129                  0.00    159.12     46.85      0.00
  131                 57.71    159.10     66.34      0.00
  139                  7.95    153.70     53.17      0.00
  141                 13.30    149.86     63.20      0.00
  143                  8.37    139.40     62.35      0.00
  145                 37.30    151.05     65.02      0.00
  147                 11.54    151.95     57.83      0.00
  149                 36.54    152.34     59.08      0.00
  151                195.05    156.13     53.13      0.00
  153                 59.63    156.22     39.01      0.00
  157                 69.92    155.89     61.87      0.00
  159                 55.78    152.64     63.54      0.00
  161                 21.33    150.44     63.45      0.00
  163                 12.72    149.99     62.82      0.00
  164                  0.00    149.99     62.82      0.00
  166                  3.51    149.99     65.86      0.00
  167                 19.66    148.19     66.38      0.00
  169                  0.00    148.19     66.38      0.00
  171                 53.11    147.15     65.49      0.00
  173                  0.00    147.13     65.48      0.00
  177                 78.53    146.73     60.11      0.00
  179                  0.00    146.71     60.10      0.00
  181                  0.00    146.77     60.13      0.00
  183                  0.00    146.71     58.80      0.00
  184                  0.00    145.68     56.19      0.00
  185                 34.63    146.18     56.41      0.00
  187                  0.00    146.80     58.19      0.00
  189                145.69    147.09     62.00      0.00
  191                110.56    147.03     52.88      0.00
  193                 96.27    147.12     55.95      0.00
  195                  0.00    147.19     57.06      0.00
  197                 23.00    147.04     53.74      0.00
  199                161.08    142.60     62.65      0.00
  201                 60.22    141.98     61.48      0.00
  203               3874.61    141.85     60.60      0.00
  204                  0.00    146.58     54.41      0.00
  205                 88.24    142.53     52.66      0.00
  206                  0.00    141.40     60.84      0.00
  207                 93.68    141.80     57.54      0.00
  208                  0.00    140.95     54.14      0.00
  209                  1.17    140.18     61.61      0.00
  211                 11.70    139.92     57.59      0.00
  213                 18.82    139.84     57.56      0.00
  215                124.46    139.64     57.47      0.00
  217                 32.70    139.62     57.90      0.00
  219                 55.78    139.61     58.76      0.00
  225                 30.78    139.61     57.03      0.00
  229                 86.64    139.56     55.92      0.00
  231                 22.25    139.55     58.30      0.00
  237                 21.07    139.60     54.42      0.00
  239                 60.22    139.55     54.84      0.00
  241                  0.00    139.55     54.84      0.00
  243                  5.86    139.55     54.40      0.00
  247                 95.01    139.55     52.67      0.00
  249                  0.00    139.55     52.67      0.00
  251                 32.62    139.54     47.47      0.00
  253                 73.60    139.50     44.85      0.00
  255                 54.53    139.55     48.77      0.00
  257                  0.00    152.80     58.84      0.00
  259                  0.00    152.37     55.19      0.00
  261                  0.00    150.83     65.35      0.00
  263                  0.00    150.66     65.28      0.00
  265                  0.00    148.76     64.46      0.00
  267                  0.00    147.15     54.66      0.00
  269                  0.00    147.51     63.92      0.00
  271                  0.00    146.87     61.04      0.00
  273                  0.00    142.54     58.30      0.00
  275                  0.00    141.97     57.18      0.00
  River           -13138.02    220.00      0.00      0.00  Reservoir
  Lake                 0.00    167.00      0.00      0.00  Reservoir
  1                  657.92    145.32      5.81      0.00  Tank
  2                 -162.94    139.75     10.07      0.00  Tank
  3                 2385.44    158.30     12.70      0.00  Tank
   
   
  Link Results at 0:20:00 hrs:
  ----------------------------------------------
                       Flow  Velocity  Headloss
  Link                  gpm       fps   /1000ft
  ----------------------------------------------
  20               -2385.44      0.10      0.00
  40                -657.92      0.03      0.00
  50                 162.94      0.01      0.00
  60               13138.02      9.32      8.90
  101                  0.00      0.00      0.00
  103                162.30      0.26      0.02
  105               -418.73      1.19      0.51
  107                 28.10      0.08      0.00
  109                -17.52      0.03      0.00
  111               -329.91      0.94      0.33
  112                486.39      1.38      0.67
  113                -92.81      0.26      0.03
  114                120.15      0.77      0.36
  115                -45.67      0.29      0.06
  116                  0.33      0.00      0.00
  117                629.58      1.79      1.08
  119               -722.54      2.05      1.39
  120               1147.43      3.26      3.27
  121               1028.09      2.92      2.67
  122                363.60      2.32      2.80
  123               9675.96      4.39      1.68
  125              13138.02      5.96      2.96
  129               3042.26      2.16      0.68
  131               2767.49      1.96      0.57
  133              -2385.44      2.44      1.05
  135                358.21      0.25      0.01
  137                 57.71      0.09      0.00
  145                300.50      1.92      1.97
  147                292.55      1.87      1.88
  149               -617.05      3.94      7.47
  151               -608.68      3.89      7.28
  153                337.80      0.96      0.34
  155                375.10      1.06      0.41
  159               -386.64      1.10      0.44
  161               -423.18      2.70      3.72
  163               -153.58      0.44      0.08
  169                213.21      1.36      1.04
  171                464.66      1.32      0.61
  173               7826.10      3.55      1.14
  175               7756.18      3.52      1.12
  177               7700.40      3.50      1.10
  179               7428.35      3.37      1.03
  180                  3.51      0.01      0.00
  181                  3.51      0.01      0.00
  183               7201.98      3.27      0.97
  185                -19.66      0.13      0.01
  186                318.47      2.03      2.19
  187               6560.94      2.98      0.82
  189               4345.03      1.97      0.38
  191              -2162.80      1.53      0.36
  193              -1659.37      1.18      0.22
  195                645.68      1.83      1.13
  197                567.15      1.61      0.89
  199                -90.76      0.26      0.03
  201               -657.92      1.87      1.17
  202                497.08      3.17      5.01
  203                213.24      1.36      1.04
  204                497.08      1.41      0.69
  205                318.47      0.90      0.30
  207                304.00      0.86      0.28
  209                154.36      0.99      0.57
  211                621.38      1.76      1.05
  213                164.11      0.47      0.09
  215                124.92      0.35      0.05
  217               -240.01      0.68      0.18
  219               -250.72      0.71      0.20
  221                250.72      1.60      1.41
  223                 34.66      0.10      0.01
  225                 57.67      0.16      0.01
  229               4345.03      3.08      1.13
  231               4028.32      2.86      0.98
  233               3874.61      2.75      1.06
  235                155.63      0.44      0.08
  237                464.66      1.32      0.61
  238                564.28      1.60      0.88
  239                193.29      0.55      0.12
  240                564.28      1.60      0.88
  241                564.28      1.60      0.88
  243                563.10      0.90      0.22
  245                330.87      0.53      0.08
  247                243.72      0.39      0.05
  249                119.26      0.19      0.01
  251                 55.78      0.12      0.01
  257                 30.78      0.09      0.00
  261                 68.33      0.44      0.13
  263                 22.25      0.06      0.00
  269                220.53      0.63      0.15
  271                 40.56      0.26      0.05
  273                158.90      0.45      0.08
  275                 40.58      0.12      0.01
  277                  5.86      0.02      0.00
  281                 34.72      0.14      0.01
  283                 58.09      0.16      0.01
  285                -40.25      0.11      0.01
  287                -20.04      0.08      0.00
  289                162.94      0.67      0.21
  291                 73.60      0.30      0.05
  293                 14.78      0.09      0.01
  295                 17.84      0.05      0.00
  297                482.94      3.08      4.74
  299                232.03      1.48      1.22
  301                232.03      1.48      1.22
  303                250.91      1.60      1.41
  305                146.64      0.42      0.07
  307                397.55      1.13      0.46
  309                210.14      1.34      1.02
  311                -85.22      0.24      0.03
  313                479.13      1.36      0.65
  315              -2305.05      1.63      0.41
  317                 99.81      0.64      0.26
  319                 55.82      0.16      0.01
  321               7412.12      3.36      1.03
  323                 93.48      0.27      0.03
  325                142.25      0.91      0.49
  329              13138.02      5.96      3.00
  330                  0.00      0.00      0.00
  333                 -0.00      0.00      0.00
  10                   0.00      0.00      0.00  Pump
  335              13138.02      0.00    -93.62  Pump
   
   
  Node Results at 0:25:00 hrs:
  --------------------------------------------------------
                     Demand      Head  Pressure  Chemical
  Node                  gpm        ft       psi      mg/L
  --------------------------------------------------------
  10                   0.00    146.51     -0.21      0.00
  15                 608.68    127.45     41.36      0.00
  20                   0.00    158.38     12.73      0.00
  35                1659.37    146.82     58.20      0.00
  40                   0.00    145.39      5.85      0.00
  50                   0.00    139.70     10.05      0.00
  60                   0.00    209.04     90.58      0.00
  601                  0.00    302.68    131.15      0.00
  61                   0.00    302.68    131.15      0.00
  101                256.43    146.51     45.28      0.00
  103                179.82    146.48     44.84      0.00
  105                182.75    147.79     51.69      0.00
  107                 73.76    147.79     54.50      0.00
  109                312.39    146.48     54.67      0.00
  111                191.62    147.13     59.42      0.00
  113                 27.01    147.18     62.91      0.00
  115                 70.33    147.90     58.02      0.00
  117                158.91    150.93     59.51      0.00
  119                237.78    158.31     67.73      0.00
  120                  0.00    155.92     67.56      0.00
  121                 56.20    161.68     70.92      0.00
  123                  0.00    166.12     67.21      0.00
  125                 61.56    161.05     65.01      0.00
  127                 23.84    159.20     44.72      0.00
  129                  0.00    159.19     46.88      0.00
  131                 57.71    159.17     66.37      0.00
  139                  7.95    153.77     53.20      0.00
  141                 13.30    149.92     63.23      0.00
  143                  8.37    139.46     62.38      0.00
  145                 37.30    151.11     65.04      0.00
  147                 11.54    152.02     57.85      0.00
  149                 36.54    152.40     59.10      0.00
  151                195.05    156.19     53.16      0.00
  153                 59.63    156.28     39.03      0.00
  157                 69.92    155.95     61.90      0.00
  159                 55.78    152.70     63.56      0.00
  161                 21.33    150.49     63.48      0.00
  163                 12.72    150.05     62.85      0.00
  164                  0.00    150.05     62.85      0.00
  166                  3.51    150.05     65.88      0.00
  167                 19.66    148.24     66.40      0.00
  169                  0.00    148.24     66.40      0.00
  171                 53.11    147.20     65.52      0.00
  173                  0.00    147.18     65.51      0.00
  177                 78.53    146.79     60.14      0.00
  179                  0.00    146.76     60.13      0.00
  181                  0.00    146.82     60.15      0.00
  183                  0.00    146.77     58.83      0.00
  184                  0.00    145.73     56.21      0.00
  185                 34.63    146.23     56.43      0.00
  187                  0.00    146.86     58.22      0.00
  189                145.69    147.15     62.03      0.00
  191                110.56    147.09     52.90      0.00
  193                 96.27    147.18     55.97      0.00
  195                  0.00    147.25     57.09      0.00
  197                 23.00    147.09     53.77      0.00
  199                161.08    142.64     62.67      0.00
  201                 60.22    142.02     61.49      0.00
  203               3874.61    141.89     60.62      0.00
  204                  0.00    146.64     54.44      0.00
  205                 88.24    142.57     52.68      0.00
  206                  0.00    141.42     60.85      0.00
  207                 93.68    141.83     57.56      0.00
  208                  0.00    140.97     54.15      0.00
  209                  1.17    140.17     61.60      0.00
[...]
  219                 54.96    141.33     59.51      0.00
  225                 30.32    141.34     57.77      0.00
  229                 85.36    141.17     56.62      4.30
  231                 21.92    141.17     59.00      0.00
  237                 20.76    141.19     55.11      9.83
  239                 59.33    141.11     55.51      9.21
  241                  0.00    141.11     55.51      8.92
  243                  5.77    141.11     55.08      0.00
  247                 93.61    141.10     53.34      1.03
  249                  0.00    141.10     53.34      4.49
  251                 32.13    141.09     48.14      0.00
  253                 72.51    141.04     45.51      0.00
  255                 53.72    141.09     49.44      0.00
  257                  0.00    154.21     59.45      0.00
  259                  0.00    153.83     55.82      0.00
  261                  0.00    152.42     66.04      0.00
  263                  0.00    152.28     65.98      0.00
  265                  0.00    150.72     65.31      0.00
  267                  0.00    149.26     55.57      0.00
  269                  0.00    149.61     64.83      0.00
  271                  0.00    149.10     62.01      0.00
  273                  0.00    144.64     59.21      2.53
  275                  0.00    144.07     58.09      6.56
  River           -13151.80    220.00      0.00      0.00  Reservoir
  Lake                 0.00    167.00      0.00      0.00  Reservoir
  1                  139.80    148.94      7.38      0.00  Tank
  2                 -101.26    141.18     10.69      0.00  Tank
  3                 1688.93    160.31     13.57      0.41  Tank
   
   
  Link Results at 23:55:00 hrs:
  ----------------------------------------------
                       Flow  Velocity  Headloss
  Link                  gpm       fps   /1000ft
  ----------------------------------------------
  20               -1688.93      0.07      0.00
  40                -139.80      0.01      0.00
  50                 101.26      0.00      0.00
  60               13151.80      9.33      8.92
  101                  0.00      0.00      0.00
  103                145.84      0.23      0.02
  105               -398.47      1.13      0.46
  107                 18.91      0.05      0.00
  109                -31.32      0.05      0.00
  111               -339.08      0.96      0.34
  112                447.59      1.27      0.57
  113               -112.29      0.32      0.04
  114                107.69      0.69      0.29
  115                -53.76      0.34      0.08
  116                -31.21      0.09      0.00
  117                597.42      1.69      0.98
  119               -678.34      1.92      1.24
  120               1090.92      3.09      2.98
  121                974.51      2.76      2.42
  122                341.40      2.18      2.50
  123               9003.21      4.09      1.47
  125              11630.98      5.28      2.36
  129               2231.01      1.58      0.38
  131               1986.24      1.41      0.31
  133              -1688.93      1.72      0.56
  135                273.82      0.19      0.01
  137                 56.86      0.09      0.00
  145                216.96      1.38      1.08
  147                209.13      1.33      1.01
  149               -371.69      2.37      2.92
  151               -363.44      2.32      2.80
  153                175.66      0.50      0.10
  155                212.40      0.60      0.14
  159               -223.77      0.63      0.16
  161               -259.78      1.66      1.50
  163               -125.37      0.36      0.05
  169                184.12      1.18      0.80
  171                326.56      0.93      0.32
  173               7351.48      3.34      1.01
  175               7282.60      3.31      0.99
  177               7227.64      3.28      0.98
  179               6968.32      3.16      0.92
  180                  3.46      0.01      0.00
  181                  3.46      0.01      0.00
  183               6752.62      3.06      0.86
  185                -19.36      0.12      0.01
  186                299.98      1.91      1.96
  187               6153.39      2.79      0.73
  189               4359.44      1.98      0.38
  191              -1741.63      1.24      0.24
  193              -1635.39      1.16      0.22
  195                232.56      0.66      0.17
  197                155.19      0.44      0.08
  199                 15.39      0.04      0.00
  201               -139.80      0.40      0.07
  202                503.68      3.21      5.13
  203                237.82      1.52      1.28
  204                503.68      1.43      0.71
  205                299.98      0.85      0.27
  207                222.43      0.63      0.16
  209                159.75      1.02      0.61
  211                579.86      1.64      0.92
  213                140.23      0.40      0.07
  215                 72.17      0.20      0.02
  217               -239.80      0.68      0.18
  219               -238.31      0.68      0.18
  221                238.31      1.52      1.28
  223                  9.36      0.03      0.00
  225                 32.02      0.09      0.00
  229               4359.44      3.09      1.14
  231               4034.83      2.86      0.99
  233               3850.69      2.73      1.05
  235                165.91      0.47      0.09
  237                482.75      1.37      0.66
  238                615.19      1.75      1.03
  239                224.73      0.64      0.16
  240                615.19      1.75      1.03
  241                615.19      1.75      1.03
  243                614.03      0.98      0.25
  245                339.27      0.54      0.08
  247                240.10      0.38      0.04
  249                117.49      0.19      0.01
  251                 54.96      0.11      0.01
  257                 30.32      0.09      0.00
  261                 80.62      0.51      0.17
  263                 21.92      0.06      0.00
  269                263.23      0.75      0.21
  271                 26.66      0.17      0.02
  273                215.82      0.61      0.15
  275                 62.20      0.18      0.01
  277                  5.77      0.02      0.00
  281                 56.43      0.23      0.03
  283                 94.28      0.27      0.03
  285                -59.51      0.17      0.01
  287                 22.34      0.09      0.01
  289                101.26      0.41      0.09
  291                 72.51      0.30      0.05
  293                 -2.63      0.02      0.00
  295                 34.77      0.10      0.01
  297                457.80      2.92      4.30
  299                219.96      1.40      1.11
  301                219.96      1.40      1.11
  303                237.84      1.52      1.28
  305                139.62      0.40      0.07
  307                377.46      1.07      0.42
  309                199.71      1.27      0.92
  311               -127.55      0.36      0.06
  313                453.54      1.29      0.59
  315              -1867.95      1.32      0.28
  317                 99.92      0.64      0.26
  319                 66.00      0.19      0.02
  321               6952.33      3.16      0.91
  323                124.81      0.35      0.05
  325                126.32      0.81      0.40
  329              13151.80      5.97      3.01
  330                  0.00      0.00      0.00
  333                 -0.00      0.00      0.00
  10                   0.00      0.00      0.00  Pump
  335              13151.80      0.00    -93.50  Pump
   
   
  Node Results at 24:00:00 hrs:
  --------------------------------------------------------
                     Demand      Head  Pressure  Chemical
  Node                  gpm        ft       psi      mg/L
  --------------------------------------------------------
  10                   0.00    149.12      0.92      0.00
  15                 608.68    129.63     42.30     90.00
  20                   0.00    160.36     13.59      0.00
  35                1659.37    149.55     59.38      0.00
  40                   0.00    148.96      7.39      2.36
  50                   0.00    141.14     10.68      0.00
  60                   0.00    209.16     90.63      0.00
  601                  0.00    303.43    131.48      0.00
  61                   0.00    303.43    131.48      0.00
  101                256.43    149.12     46.41      0.87
  103                179.82    149.09     45.97     15.10
  105                182.75    150.37     52.81      0.00
  107                 73.76    150.37     55.62      3.81
  109                312.39    149.09     55.81      3.27
  111                191.62    149.76     60.56      2.67
  113                 27.01    149.83     64.05      3.37
  115                 70.33    150.50     59.15      0.00
  117                158.91    153.43     60.59      0.00
  119                237.78    160.60     68.72      0.00
  120                  0.00    158.28     68.58      0.00
  121                 56.20    163.87     71.87      0.00
  123                  0.00    168.27     68.14      0.00
  125                 61.56    163.20     65.95      0.00
  127                 23.84    161.25     45.60      0.00
  129                  0.00    161.23     47.76      0.00
  131                 57.71    161.21     67.25      0.00
  139                  7.95    155.89     54.12      0.00
  141                 13.30    152.10     64.17     41.09
  143                  8.37    141.65     63.32     62.76
  145                 37.30    153.31     66.00     64.56
  147                 11.54    154.23     58.81     24.79
  149                 36.54    154.62     60.06     24.90
  151                195.05    158.44     54.14     24.53
  153                 59.63    158.53     40.01      0.00
  157                 69.92    158.32     62.92      0.00
  159                 55.78    155.18     64.64      0.00
  161                 21.33    153.05     64.58      0.00
  163                 12.72    152.62     63.96      0.00
  164                  0.00    152.62     63.96      0.00
  166                  3.51    152.62     67.00      0.00
  167                 19.66    150.88     67.54      0.00
  169                  0.00    150.88     67.54      0.00
  171                 53.11    149.87     66.67      0.00
  173                  0.00    149.85     66.66      0.00
  177                 78.53    149.54     61.33      0.00
  179                  0.00    149.52     61.32      0.00
  181                  0.00    149.55     61.33      0.00
  183                  0.00    149.52     60.02      2.85
  184                  0.00    148.39     57.36      6.37
  185                 34.63    148.91     57.59      5.64
  187                  0.00    149.52     59.37      7.65
  189                145.69    149.83     63.19      2.11
  191                110.56    149.73     54.05      5.38
  193                 96.27    149.83     57.12      4.33
  195                  0.00    149.90     58.23      0.00
  197                 23.00    149.74     54.91     14.92
  199                161.08    145.18     63.77      0.00
  201                 60.22    144.54     62.59      0.00
  203               3874.61    144.41     61.71      0.00
  204                  0.00    149.31     55.60      7.64
  205                 88.24    145.09     53.77     15.25
  206                  0.00    143.72     61.84     13.68
  207                 93.68    144.24     58.60     14.19
  208                  0.00    143.13     55.09     13.50
  209                  1.17    142.11     62.44     13.66
  211                 11.70    141.77     58.40     14.85
  213                 18.82    141.68     58.36     13.65
  215                124.46    141.48     58.27      0.00
  217                 32.70    141.46     58.70      0.00
  219                 55.78    141.45     59.56      0.00
  225                 30.78    141.46     57.83      0.00
  229                 86.64    141.23     56.64      4.70
  231                 22.25    141.22     59.02      0.00
  237                 21.07    141.24     55.13      9.62
  239                 60.22    141.14     55.52      9.79
  241                  0.00    141.14     55.52      9.21
  243                  5.86    141.14     55.09      0.00
  247                 95.01    141.12     53.35      3.39
  249                  0.00    141.12     53.35      5.45
  251                 32.62    141.10     48.14      0.00
  253                 73.60    141.04     45.51      0.00
  255                 54.53    141.10     49.44      0.00
  257                  0.00    155.30     59.93      0.00
  259                  0.00    154.89     56.28      0.00
  261                  0.00    153.38     66.46      0.00
  263                  0.00    153.22     66.39      0.00
  265                  0.00    151.43     65.62      0.00
  267                  0.00    149.87     55.84      0.00
  269                  0.00    150.23     65.09      0.00
  271                  0.00    149.64     62.24      0.00
  273                  0.00    145.10     59.41      0.43
  275                  0.00    144.52     58.29      6.56
  River           -13063.26    220.00      0.00      0.00  Reservoir
  Lake                 0.00    167.00      0.00      0.00  Reservoir
  1                  404.80    148.96      7.39      0.00  Tank
  2                  -72.93    141.14     10.68      0.00  Tank
  3                 2473.79    160.36     13.59      0.41  Tank
   
   
  Link Results at 24:00:00 hrs:
  ----------------------------------------------
                       Flow  Velocity  Headloss
  Link                  gpm       fps   /1000ft
  ----------------------------------------------
  20               -2473.79      0.10      0.00
  40                -404.80      0.02      0.00
  50                  72.93      0.00      0.00
  60               13063.26      9.26      8.81
  101                  0.00      0.00      0.00
  103                156.73      0.25      0.02
  105               -413.16      1.17      0.49
  107                 24.58      0.07      0.00
  109                -23.09      0.04      0.00
  111               -335.48      0.95      0.34
  112                473.94      1.34      0.64
  113               -102.45      0.29      0.04
  114                115.89      0.74      0.34
  115                -49.18      0.31      0.07
  116                -13.58      0.04      0.00
  117                620.49      1.76      1.05
  119               -709.34      2.01      1.34
  120               1130.71      3.21      3.18
  121               1012.93      2.87      2.60
  122                358.04      2.29      2.73
  123               9522.90      4.32      1.63
  125              13063.26      5.93      2.93
  129               3126.12      2.22      0.72
  131               2853.54      2.02      0.60
  133              -2473.79      2.53      1.13
  135                355.92      0.25      0.01
  137                 57.71      0.09      0.00
  145                298.20      1.90      1.94
  147                290.25      1.85      1.85
  149               -617.05      3.94      7.47
  151               -608.68      3.89      7.28
  153                340.10      0.96      0.34
  155                377.40      1.07      0.42
  159               -388.94      1.10      0.44
  161               -425.48      2.72      3.75
  163               -151.39      0.43      0.08
  169                211.02      1.35      1.02
  171                469.14      1.33      0.62
  173               7685.28      3.49      1.10
  175               7615.36      3.46      1.08
  177               7559.58      3.43      1.06
  179               7291.18      3.31      1.00
  180                  3.51      0.01      0.00
  181                  3.51      0.01      0.00
  183               7068.03      3.21      0.94
  185                -19.66      0.13      0.01
  186                315.11      2.01      2.15
  187               6442.22      2.92      0.79
  189               4421.81      2.01      0.39
  191              -1967.30      1.40      0.30
  193              -1659.37      1.18      0.22
  195                444.24      1.26      0.56
  197                365.71      1.04      0.39
  199                -39.09      0.11      0.01
  201               -404.80      1.15      0.47
  202                510.30      3.26      5.25
  203                229.82      1.47      1.20
  204                510.30      1.45      0.73
  205                315.11      0.89      0.30
  207                268.90      0.76      0.22
  209                158.56      1.01      0.60
  211                606.16      1.72      1.00
  213                156.55      0.44      0.08
  215                103.31      0.29      0.04
  217               -240.82      0.68      0.18
  219               -247.07      0.70      0.19
  221                247.07      1.58      1.37
  223                 26.29      0.07      0.00
  225                 49.30      0.14      0.01
  229               4421.81      3.14      1.17
  231               4082.21      2.90      1.01
  233               3874.61      2.75      1.06
  235                178.51      0.51      0.10
  237                499.74      1.42      0.70
  238                654.29      1.86      1.16
  239                248.22      0.70      0.19
  240                654.29      1.86      1.16
  241                654.29      1.86      1.16
  243                653.11      1.04      0.28
  245                351.38      0.56      0.09
  247                243.72      0.39      0.05
  249                119.26      0.19      0.01
  251                 55.78      0.12      0.01
  257                 30.78      0.09      0.00
  261                 88.85      0.57      0.21
  263                 22.25      0.06      0.00
  269                290.03      0.82      0.26
  271                 20.05      0.13      0.01
  273                248.91      0.71      0.19
  275                 74.31      0.21      0.02
  277                  5.86      0.02      0.00
  281                 68.45      0.28      0.04
  283                114.38      0.32      0.05
  285                -66.40      0.19      0.02
  287                 39.83      0.16      0.02
  289                 72.93      0.30      0.05
  291                 73.60      0.30      0.05
  293                -15.36      0.10      0.01
  295                 47.98      0.14      0.01
  297                475.82      3.04      4.62
  299                228.61      1.46      1.19
  301                228.61      1.46      1.19
  303                247.21      1.58      1.37
  305                144.67      0.41      0.07
  307                391.88      1.11      0.45
  309                206.92      1.32      0.99
  311               -103.60      0.29      0.04
  313                469.85      1.33      0.63
  315              -2103.61      1.49      0.34
  317                100.84      0.64      0.26
  319                 77.68      0.22      0.02
  321               7274.95      3.30      0.99
  323                147.38      0.42      0.07
  325                136.31      0.87      0.46
  329              13063.26      5.93      2.97
  330                  0.00      0.00      0.00
  333                 -0.00      0.00      0.00
  10                   0.00      0.00      0.00  Pump
  335              13063.26      0.00    -94.28  Pump
   
  Analysis ended Wed May 06 17:04:36 2020
