  Page 1                                    Sat May 02 20:54:50 2020

  ******************************************************************
  *                           E P A N E T                          *
  *                   Hydraulic and Water Quality                  *
  *                   Analysis for Pipe Networks                   *
  *                         Version 2.00.12                        *
  ******************************************************************
  
  Analysis begun Sat May 02 20:54:50 2020

   
  Hydraulic Status:
  -----------------------------------------------------------------------
     0:00:00: Balanced after 6 trials
     0:00:00: Reservoir River is emptying
     0:00:00: Reservoir Lake is closed
     0:00:00: Tank 1 is filling at 13.10 ft
     0:00:00: Tank 2 is emptying at 23.50 ft
     0:00:00: Tank 3 is filling at 29.00 ft
   
     0:05:00: Balanced after 2 trials
   
     0:10:00: Balanced after 2 trials
   
     0:15:00: Balanced after 2 trials
   
     0:20:00: Balanced after 2 trials
   
     0:25:00: Balanced after 2 trials
   
     0:30:00: Balanced after 2 trials
   
     0:35:00: Balanced after 2 trials
   
     0:40:00: Balanced after 2 trials
   
     0:45:00: Balanced after 2 trials
   
     0:50:00: Balanced after 2 trials
   
     0:55:00: Balanced after 2 trials
   
     1:00:00: Pump 10 changed by timer control
     1:00:00: Balanced after 7 trials
     1:00:00: Reservoir Lake is emptying
     1:00:00: Pump 10 changed from closed to open
   
     1:05:00: Balanced after 2 trials
   
     1:10:00: Balanced after 2 trials
   
     1:15:00: Balanced after 2 trials
   
     1:20:00: Balanced after 2 trials
   
     1:25:00: Balanced after 2 trials
   
     1:30:00: Balanced after 2 trials
   
     1:35:00: Balanced after 2 trials
   
     1:40:00: Balanced after 2 trials
   
     1:45:00: Balanced after 2 trials
   
     1:50:00: Balanced after 2 trials
   
     1:55:00: Balanced after 2 trials
   
     2:00:00: Balanced after 3 trials
     2:00:00: Tank 2 is filling at 20.49 ft
   
     2:05:00: Balanced after 1 trials
   
     2:10:00: Balanced after 1 trials
   
     2:15:00: Balanced after 1 trials
   
     2:20:00: Balanced after 1 trials
   
     2:25:00: Balanced after 1 trials
   
     2:30:00: Balanced after 1 trials
   
     2:35:00: Balanced after 1 trials
   
     2:40:00: Balanced after 1 trials
   
     2:45:00: Balanced after 1 trials
   
     2:50:00: Balanced after 1 trials
   
     2:55:00: Balanced after 1 trials
   
     3:00:00: Balanced after 3 trials
   
     3:05:00: Balanced after 1 trials
   
     3:10:00: Balanced after 1 trials
   
     3:15:00: Balanced after 1 trials
   
     3:20:00: Balanced after 1 trials
   
     3:25:00: Balanced after 1 trials
   
     3:30:00: Balanced after 1 trials
   
     3:35:00: Balanced after 1 trials
   
     3:40:00: Balanced after 1 trials
   
     3:45:00: Balanced after 1 trials
   
     3:50:00: Balanced after 1 trials
   
     3:55:00: Balanced after 1 trials
   
     4:00:00: Balanced after 3 trials
   
     4:05:00: Balanced after 1 trials
   
     4:10:00: Balanced after 1 trials
   
     4:10:41: Pump 335 changed by Tank 1 control
     4:10:41: Pipe 330 changed by Tank 1 control
     4:10:41: Balanced after 4 trials
     4:10:41: Pipe 330 changed from closed to open
     4:10:41: Pump 335 changed from open to closed
   
     4:15:00: Balanced after 2 trials
   
     4:20:00: Balanced after 2 trials
   
     4:25:00: Balanced after 2 trials
   
     4:30:00: Balanced after 2 trials
   
     4:35:00: Balanced after 2 trials
   
     4:40:00: Balanced after 2 trials
   
     4:45:00: Balanced after 2 trials
   
     4:50:00: Balanced after 2 trials
   
     4:55:00: Balanced after 2 trials
   
     5:00:00: Balanced after 3 trials
     5:00:00: Tank 3 is emptying at 34.48 ft
   
     5:05:00: Balanced after 2 trials
   
     5:10:00: Balanced after 2 trials
   
     5:15:00: Balanced after 2 trials
   
     5:20:00: Balanced after 2 trials
   
     5:25:00: Balanced after 2 trials
   
     5:30:00: Balanced after 2 trials
   
     5:35:00: Balanced after 2 trials
   
     5:40:00: Balanced after 2 trials
   
     5:45:00: Balanced after 2 trials
   
     5:50:00: Balanced after 2 trials
   
     5:55:00: Balanced after 2 trials
   
     6:00:00: Balanced after 3 trials
     6:00:00: Tank 3 is filling at 34.41 ft
   
     6:05:00: Balanced after 1 trials
   
     6:10:00: Balanced after 1 trials
   
     6:15:00: Balanced after 1 trials
   
     6:20:00: Balanced after 1 trials
   
     6:25:00: Balanced after 1 trials
   
     6:30:00: Balanced after 1 trials
   
     6:35:00: Balanced after 1 trials
   
     6:40:00: Balanced after 1 trials
   
     6:45:00: Balanced after 1 trials
   
     6:50:00: Balanced after 1 trials
   
     6:55:00: Balanced after 1 trials
   
     7:00:00: Balanced after 3 trials
   
     7:05:00: Balanced after 1 trials
   
     7:10:00: Balanced after 1 trials
   
     7:15:00: Balanced after 1 trials
   
     7:20:00: Balanced after 1 trials
   
     7:25:00: Balanced after 1 trials
   
     7:30:00: Balanced after 1 trials
   
     7:35:00: Balanced after 1 trials
   
     7:40:00: Balanced after 1 trials
   
     7:45:00: Balanced after 1 trials
   
     7:50:00: Balanced after 1 trials
   
     7:55:00: Balanced after 1 trials
   
     8:00:00: Balanced after 3 trials
   
     8:05:00: Balanced after 1 trials
   
     8:10:00: Balanced after 1 trials
   
     8:15:00: Balanced after 1 trials
   
     8:20:00: Balanced after 1 trials
   
     8:25:00: Balanced after 1 trials
   
     8:30:00: Balanced after 1 trials
   
     8:35:00: Balanced after 1 trials
   
     8:40:00: Balanced after 1 trials
   
     8:45:00: Balanced after 1 trials
   
     8:45:31: Balanced after 4 trials
     8:45:31: Tank 3 is closed at 35.50 ft
     8:45:31: Pipe 20 changed from open to temporarily closed
   
     8:50:00: Balanced after 1 trials
   
     8:55:00: Balanced after 1 trials
   
     9:00:00: Balanced after 5 trials
     9:00:00: Tank 3 is emptying at 35.50 ft
     9:00:00: Pipe 20 changed from temporarily closed to open
   
     9:05:00: Balanced after 2 trials
   
     9:10:00: Balanced after 2 trials
   
     9:15:00: Balanced after 2 trials
   
     9:20:00: Balanced after 2 trials
   
     9:25:00: Balanced after 2 trials
   
     9:30:00: Balanced after 1 trials
   
     9:35:00: Balanced after 1 trials
   
     9:40:00: Balanced after 1 trials
   
     9:45:00: Balanced after 1 trials
   
     9:50:00: Balanced after 1 trials
   
     9:55:00: Balanced after 1 trials
   
    10:00:00: Balanced after 3 trials
    10:00:00: Tank 2 is emptying at 29.03 ft
   
    10:05:00: Balanced after 1 trials
   
    10:10:00: Balanced after 1 trials
   
    10:15:00: Balanced after 1 trials
    10:15:00: Tank 1 is emptying at 23.00 ft
   
    10:20:00: Balanced after 1 trials
   
    10:25:00: Balanced after 1 trials
   
    10:30:00: Balanced after 1 trials
   
    10:35:00: Balanced after 1 trials
   
    10:40:00: Balanced after 1 trials
   
    10:45:00: Balanced after 1 trials
   
    10:50:00: Balanced after 1 trials
   
    10:55:00: Balanced after 1 trials
   
    11:00:00: Balanced after 4 trials
   
    11:05:00: Balanced after 1 trials
   
    11:10:00: Balanced after 1 trials
   
    11:15:00: Balanced after 1 trials
   
    11:20:00: Balanced after 1 trials
   
    11:25:00: Balanced after 1 trials
   
    11:30:00: Balanced after 1 trials
   
    11:35:00: Balanced after 1 trials
   
    11:40:00: Balanced after 1 trials
   
    11:45:00: Balanced after 1 trials
   
    11:50:00: Balanced after 1 trials
   
    11:55:00: Balanced after 1 trials
   
    12:00:00: Balanced after 2 trials
   
    12:05:00: Balanced after 1 trials
   
    12:10:00: Balanced after 1 trials
   
    12:15:00: Balanced after 1 trials
   
    12:20:00: Balanced after 1 trials
   
    12:25:00: Balanced after 1 trials
   
    12:30:00: Balanced after 1 trials
   
    12:35:00: Balanced after 1 trials
   
    12:40:00: Balanced after 1 trials
   
    12:45:00: Balanced after 1 trials
   
    12:50:00: Balanced after 1 trials
   
    12:55:00: Balanced after 1 trials
   
    13:00:00: Balanced after 4 trials
    13:00:00: Tank 1 is filling at 21.88 ft
    13:00:00: Tank 2 is filling at 27.97 ft
   
    13:05:00: Balanced after 2 trials
   
    13:10:00: Balanced after 2 trials
   
    13:15:00: Balanced after 2 trials
   
    13:20:00: Balanced after 2 trials
   
    13:25:00: Balanced after 2 trials
   
    13:30:00: Balanced after 2 trials
   
    13:35:00: Balanced after 2 trials
   
    13:40:00: Balanced after 2 trials
   
    13:45:00: Balanced after 2 trials
   
    13:50:00: Balanced after 2 trials
   
    13:55:00: Balanced after 2 trials
   
    14:00:00: Balanced after 3 trials
   
    14:05:00: Balanced after 1 trials
    14:05:00: Tank 1 is emptying at 22.39 ft
   
    14:10:00: Balanced after 1 trials
   
    14:15:00: Balanced after 1 trials
   
    14:20:00: Balanced after 1 trials
   
    14:25:00: Balanced after 1 trials
   
    14:30:00: Balanced after 1 trials
   
    14:35:00: Balanced after 1 trials
   
    14:40:00: Balanced after 1 trials
   
    14:45:00: Balanced after 1 trials
   
    14:50:00: Balanced after 1 trials
   
    14:55:00: Balanced after 1 trials
   
    15:00:00: Pump 10 changed by timer control
    15:00:00: Balanced after 5 trials
    15:00:00: Reservoir Lake is closed
    15:00:00: Tank 2 is emptying at 29.06 ft
    15:00:00: Pump 10 changed from open to closed
   
    15:05:00: Balanced after 1 trials
   
    15:10:00: Balanced after 1 trials
   
    15:15:00: Balanced after 1 trials
   
    15:20:00: Balanced after 1 trials
   
    15:25:00: Balanced after 1 trials
   
    15:30:00: Balanced after 1 trials
   
    15:35:00: Balanced after 1 trials
   
    15:40:00: Balanced after 1 trials
   
    15:45:00: Balanced after 1 trials
   
    15:50:00: Balanced after 1 trials
   
    15:55:00: Balanced after 1 trials
   
    16:00:00: Balanced after 4 trials
    16:00:00: Tank 2 is filling at 27.93 ft
   
    16:05:00: Balanced after 2 trials
   
    16:10:00: Balanced after 2 trials
   
    16:15:00: Balanced after 2 trials
   
    16:20:00: Balanced after 2 trials
   
    16:25:00: Balanced after 2 trials
   
    16:30:00: Balanced after 2 trials
    16:30:00: Tank 2 is emptying at 27.95 ft
   
    16:35:00: Balanced after 1 trials
   
    16:40:00: Balanced after 1 trials
   
    16:45:00: Balanced after 1 trials
   
    16:50:00: Balanced after 1 trials
   
    16:55:00: Balanced after 1 trials
   
    17:00:00: Balanced after 3 trials
    17:00:00: Tank 2 is filling at 27.93 ft
   
    17:05:00: Balanced after 2 trials
   
    17:10:00: Balanced after 2 trials
   
    17:15:00: Balanced after 2 trials
   
    17:20:00: Balanced after 2 trials
   
    17:25:00: Balanced after 2 trials
   
    17:30:00: Balanced after 2 trials
   
    17:35:00: Balanced after 2 trials
   
    17:40:00: Balanced after 2 trials
   
    17:45:00: Balanced after 2 trials
    17:45:00: Tank 2 is emptying at 28.00 ft
   
    17:50:00: Balanced after 1 trials
   
    17:55:00: Balanced after 1 trials
   
    18:00:00: Balanced after 2 trials
   
    18:05:00: Balanced after 1 trials
   
    18:10:00: Balanced after 1 trials
   
    18:15:00: Balanced after 1 trials
   
    18:20:00: Balanced after 1 trials
   
    18:25:00: Balanced after 1 trials
   
    18:30:00: Balanced after 1 trials
   
    18:35:00: Balanced after 1 trials
   
    18:40:00: Balanced after 1 trials
   
    18:45:00: Balanced after 1 trials
   
    18:50:00: Balanced after 1 trials
   
    18:55:00: Balanced after 1 trials
   
    19:00:00: Balanced after 4 trials
    19:00:00: Tank 1 is filling at 18.96 ft
    19:00:00: Tank 2 is filling at 27.77 ft
   
    19:05:00: Balanced after 2 trials
   
    19:10:00: Balanced after 2 trials
   
    19:15:00: Balanced after 2 trials
   
    19:20:00: Balanced after 2 trials
   
    19:25:00: Balanced after 2 trials
   
    19:30:00: Balanced after 2 trials
   
    19:35:00: Balanced after 2 trials
   
    19:40:00: Balanced after 2 trials
   
    19:45:00: Balanced after 2 trials
   
    19:50:00: Balanced after 2 trials
   
    19:55:00: Balanced after 2 trials
   
    20:00:00: Balanced after 4 trials
    20:00:00: Tank 1 is emptying at 19.26 ft
    20:00:00: Tank 2 is emptying at 28.52 ft
   
    20:05:00: Balanced after 1 trials
   
    20:10:00: Balanced after 1 trials
   
    20:15:00: Balanced after 1 trials
   
    20:20:00: Balanced after 1 trials
   
    20:25:00: Balanced after 1 trials
   
    20:30:00: Balanced after 1 trials
   
    20:35:00: Balanced after 1 trials
   
    20:40:00: Balanced after 1 trials
   
    20:45:00: Balanced after 1 trials
   
    20:50:00: Balanced after 1 trials
   
    20:55:00: Balanced after 1 trials
   
    21:00:00: Balanced after 3 trials
   
    21:05:00: Balanced after 1 trials
   
    21:10:00: Balanced after 1 trials
   
    21:15:00: Balanced after 1 trials
   
    21:20:00: Balanced after 1 trials
   
    21:25:00: Balanced after 1 trials
   
    21:30:00: Balanced after 1 trials
   
    21:35:00: Balanced after 1 trials
   
    21:40:00: Balanced after 1 trials
   
    21:45:00: Balanced after 1 trials
   
    21:50:00: Balanced after 1 trials
   
    21:55:00: Balanced after 1 trials
   
    22:00:00: Balanced after 4 trials
   
    22:05:00: Balanced after 2 trials
   
    22:10:00: Balanced after 2 trials
   
    22:15:00: Balanced after 2 trials
   
    22:20:00: Balanced after 2 trials
   
    22:20:23: Pump 335 changed by Tank 1 control
    22:20:23: Pipe 330 changed by Tank 1 control
    22:20:23: Balanced after 5 trials
    22:20:23: Tank 3 is filling at 29.50 ft
    22:20:23: Pipe 330 changed from open to closed
    22:20:23: Pump 335 changed from closed to open
   
    22:25:00: Balanced after 2 trials
   
    22:30:00: Balanced after 2 trials
   
    22:35:00: Balanced after 2 trials
   
    22:40:00: Balanced after 2 trials
   
    22:45:00: Balanced after 2 trials
   
    22:50:00: Balanced after 2 trials
   
    22:55:00: Balanced after 2 trials
   
    23:00:00: Balanced after 3 trials
   
    23:05:00: Balanced after 2 trials
   
    23:10:00: Balanced after 2 trials
   
    23:15:00: Balanced after 2 trials
   
    23:20:00: Balanced after 2 trials
   
    23:25:00: Balanced after 2 trials
   
    23:30:00: Balanced after 2 trials
   
    23:35:00: Balanced after 2 trials
   
    23:40:00: Balanced after 2 trials
   
    23:45:00: Balanced after 2 trials
   
    23:50:00: Balanced after 2 trials
   
    23:55:00: Balanced after 2 trials
   
    24:00:00: Balanced after 3 trials
   
   
  Node Results at 0:00:00 hrs:
  --------------------------------------------------------
                     Demand      Head  Pressure  Chemical
  Node                  gpm        ft       psi      mg/L
  --------------------------------------------------------
  10                   0.00    144.25     -1.19      0.00
  15                 732.27    113.96     35.51      0.00
  20                   0.00    158.00     12.57      0.00
  35                1624.54    145.09     57.45      0.00
  40                   0.00    145.00      5.68      0.00
  50                   0.00    140.00     10.18      0.00
  60                   0.00    208.99     90.55      0.00
  601                  0.00    302.29    130.98      0.00
  61                   0.00    302.29    130.98      0.00
  101                281.13    144.25     44.31      0.00
  103                197.14    144.23     43.86      0.00
  105                200.35    145.65     50.76      0.00
  107                 80.87    145.64     53.57      0.00
  109                342.47    144.23     53.70      0.00
  111                210.07    145.09     58.53      0.00
  113                 29.61    145.19     62.04      0.00
  115                 77.11    145.86     57.13      0.00
  117                174.21    149.03     58.68      0.00
  119                260.67    156.95     67.14      0.00
  120                  0.00    154.38     66.89      0.00
  121                 61.61    160.53     70.43      0.00
  123                  0.00    165.00     66.73      0.00
  125                 67.49    160.02     64.57      0.00
  127                 26.14    158.58     44.45      0.00
  129                  0.00    158.56     46.61      0.00
  131                 63.27    158.54     66.09      0.00
  139                  8.72    150.98     51.99      0.00
  141                 14.58    145.58     61.35      0.00
  143                  9.18    130.88     58.66      0.00
  145                 40.89    147.24     63.37      0.00
  147                 12.65    148.49     56.32      0.00
  149                 40.06    149.01     57.64      0.00
  151                213.83    154.14     52.27      0.00
  153                 65.37    154.25     38.15      0.00
  157                 76.65    154.48     61.26      0.00
  159                 61.15    151.08     62.86      0.00
  161                 23.38    148.78     62.73      0.00
  163                 13.94    148.32     62.10      0.00
  164                  0.00    148.32     62.10      0.00
  166                  3.85    148.32     65.13      0.00
  167                 21.55    146.44     65.62      0.00
  169                  0.00    146.44     65.62      0.00
  171                 58.22    145.36     64.72      0.00
  173                  0.00    145.33     64.71      0.00
  177                 86.09    145.09     59.40      0.00
  179                  0.00    145.08     59.40      0.00
  181                  0.00    145.09     59.40      0.00
  183                  0.00    145.08     58.10      0.00
  184                  0.00    143.62     55.30      0.00
  185                 37.96    144.25     55.57      0.00
  187                  0.00    144.90     57.37      0.00
  189                159.72    145.28     61.22      0.00
  191                121.21    145.09     52.03      0.00
  193                105.54    145.20     55.12      0.00
  195                  0.00    145.28     56.23      0.00
  197                 25.22    145.09     52.90      0.00
  199                176.59    139.73     61.41      0.00
  201                 66.02    138.94     60.16      0.00
  203               4649.94    138.77     59.26      0.00
  204                  0.00    144.67     53.59      0.00
  205                 96.73    139.70     51.43      0.00
  206                  0.00    138.81     59.71      0.00
  207                102.70    138.97     56.31      0.00
  208                  0.00    138.63     53.14      0.00
  209                  1.29    138.32     60.80      0.00
  211                 12.83    138.22     56.86      0.00
  213                 20.63    138.14     56.82      0.00
  215                136.44    137.91     56.72      0.00
  217                 35.85    137.89     57.15      0.00
  219                 61.15    137.87     58.01      0.00
  225                 33.74    137.88     56.28      0.00
  229                 94.99    138.07     55.27      0.00
  231                 24.39    138.06     57.66      0.00
  237                 23.10    138.22     53.82      0.00
  239                 66.02    138.24     54.27      0.00
  241                  0.00    138.24     54.27      0.00
  243                  6.42    138.24     53.83      0.00
  247                104.16    138.26     52.11      0.00
  249                  0.00    138.26     52.11      0.00
  251                 35.76    138.29     46.92      0.00
  253                 80.69    138.61     44.46      0.00
  255                 59.78    138.68     48.39      0.00
  257                  0.00    151.10     58.10      0.00
  259                  0.00    150.64     54.44      0.00
  261                  0.00    148.98     64.55      0.00
  263                  0.00    148.80     64.48      0.00
  265                  0.00    147.04     63.71      0.00
  267                  0.00    145.30     53.86      0.00
  269                  0.00    145.74     63.15      0.00
  271                  0.00    145.17     60.30      0.00
  273                  0.00    139.70     57.06      0.00
  275                  0.00    138.96     55.88      0.00
  River           -13173.67    220.00      0.00      0.00  Reservoir
  Lake                 0.00    167.00      0.00      0.00  Reservoir
  1                  142.85    145.00      5.68      0.00  Tank
  2                 -454.78    140.00     10.18      0.00  Tank
  3                 1967.65    158.00     12.57      0.00  Tank
   
   
  Link Results at 0:00:00 hrs:
  ----------------------------------------------
                       Flow  Velocity  Headloss
  Link                  gpm       fps   /1000ft
  ----------------------------------------------
  20               -1967.65      0.08      0.00
  40                -142.85      0.01      0.00
  50                 454.78      0.02      0.00
  60               13173.67      9.34      8.95
  101                  0.00      0.00      0.00
  103                156.36      0.25      0.02
  105               -437.49      1.24      0.55
  107                 17.44      0.05      0.00
  109                -40.78      0.07      0.00
  111               -383.25      1.09      0.43
  112                484.55      1.37      0.66
  113               -130.57      0.37      0.06
  114                115.46      0.74      0.34
  115                -63.43      0.40      0.11
  116                -44.72      0.13      0.01
  117                655.28      1.86      1.16
  119               -740.54      2.10      1.45
  120               1193.00      3.38      3.51
  121               1068.19      3.03      2.86
  122                377.02      2.41      3.00
  123              10013.77      4.55      1.79
  125              13173.67      5.98      2.98
  129               2721.28      1.93      0.55
  131               2417.31      1.71      0.44
  133              -1967.65      2.01      0.74
  135                423.53      0.30      0.02
  137                 63.27      0.10      0.00
  145                360.26      2.30      2.76
  147                351.54      2.24      2.64
  149               -741.45      4.73     10.50
  151               -732.27      4.67     10.26
  153                404.48      1.15      0.47
  155                445.38      1.26      0.57
  159               -458.03      1.30      0.60
  161               -498.09      3.18      5.02
  163               -171.11      0.49      0.10
  169                236.48      1.51      1.26
  171                540.82      1.53      0.81
  173               8019.27      3.64      1.19
  175               7942.62      3.61      1.17
  177               7881.47      3.58      1.15
  179               7596.56      3.45      1.07
  180                  3.85      0.01      0.00
  181                  3.85      0.01      0.00
  183               7359.56      3.34      1.01
  185                -21.55      0.14      0.02
  186                326.78      2.09      2.30
  187               6704.64      3.04      0.85
  189               4874.29      2.21      0.47
  191              -1772.13      1.26      0.25
  193              -1624.54      1.15      0.21
  195                281.60      0.80      0.24
  197                195.51      0.55      0.12
  199                 52.66      0.15      0.01
  201               -142.85      0.41      0.07
  202                560.17      3.58      6.24
  203                271.35      1.73      1.63
  204                560.17      1.59      0.87
  205                326.78      0.93      0.32
  207                218.69      0.62      0.15
  209                180.60      1.15      0.77
  211                633.37      1.80      1.09
  213                146.18      0.41      0.07
  215                 59.66      0.17      0.01
  217               -270.82      0.77      0.23
  219               -261.53      0.74      0.21
  221                261.53      1.67      1.52
  223                 -3.43      0.01      0.00
  225                 21.79      0.06      0.00
  229               4874.29      3.46      1.40
  231               4582.81      3.25      1.25
  233               4649.94      3.30      1.49
  235                114.88      0.33      0.05
  237                463.86      1.32      0.61
  238                342.47      0.97      0.35
  239                -18.69      0.05      0.00
  240                342.47      0.97      0.35
  241                342.47      0.97      0.35
  243                341.18      0.54      0.09
  245                321.76      0.51      0.08
  247                267.18      0.43      0.05
  249                130.74      0.21      0.01
  251                 61.15      0.13      0.01
  257                 33.74      0.10      0.00
  261                 33.94      0.22      0.03
  263                 24.39      0.07      0.00
  269                  6.59      0.02      0.00
  271                 85.43      0.55      0.19
  273               -101.94      0.29      0.04
  275                -58.95      0.17      0.01
  277                  6.42      0.02      0.00
  281                -65.37      0.27      0.04
  283               -109.01      0.31      0.04
  285                 26.76      0.08      0.00
  287               -196.30      0.80      0.30
  289                454.78      1.86      1.43
  291                 80.69      0.33      0.06
  293                118.01      0.75      0.35
  295                -82.25      0.23      0.02
  297                501.83      3.20      5.09
  299                241.13      1.54      1.31
  301                241.13      1.54      1.31
  303                260.70      1.66      1.51
  305                153.45      0.44      0.08
  307                414.15      1.17      0.50
  309                219.21      1.40      1.10
  311               -159.55      0.45      0.08
  313                499.36      1.42      0.70
  315              -1906.14      1.35      0.29
  317                114.46      0.73      0.33
  319                  0.42      0.00      0.00
  321               7578.77      3.44      1.07
  323               -133.15      0.38      0.06
  325                134.01      0.86      0.44
  329              13173.67      5.98      3.02
  330                  0.00      0.00      0.00
  333                 -0.00      0.00      0.00
  10                   0.00      0.00      0.00  Pump
  335              13173.67      0.00    -93.30  Pump
   
   
  Node Results at 0:05:00 hrs:
  --------------------------------------------------------
                     Demand      Head  Pressure  Chemical
  Node                  gpm        ft       psi      mg/L
  --------------------------------------------------------
  10                   0.00    144.27     -1.18      0.00
  15                 732.27    114.00     35.53      0.00
  20                   0.00    158.06     12.59      0.00
  35                1624.54    145.10     57.46      0.00
  40                   0.00    145.02      5.68      0.00
  50                   0.00    139.85     10.12      0.00
  60                   0.00    208.99     90.55      0.00
  601                  0.00    302.30    130.99      0.00
  61                   0.00    302.30    130.99      0.00
  101                281.13    144.27     44.31      0.00
  103                197.14    144.25     43.87      0.00
  105                200.35    145.67     50.77      0.00
  107                 80.87    145.66     53.58      0.00
  109                342.47    144.25     53.71      0.00
  111                210.07    145.11     58.54      0.00
  113                 29.61    145.21     62.05      0.00
  115                 77.11    145.88     57.14      0.00
  117                174.21    149.05     58.69      0.00
  119                260.67    156.98     67.15      0.00
  120                  0.00    154.42     66.91      0.00
  121                 61.61    160.57     70.44      0.00
  123                  0.00    165.04     66.75      0.00
  125                 67.49    160.06     64.59      0.00
  127                 26.14    158.64     44.47      0.00
  129                  0.00    158.62     46.63      0.00
  131                 63.27    158.60     66.12      0.00
  139                  8.72    151.03     52.01      0.00
  141                 14.58    145.62     61.37      0.00
  143                  9.18    130.93     58.68      0.00
  145                 40.89    147.29     63.39      0.00
  147                 12.65    148.53     56.34      0.00
  149                 40.06    149.06     57.65      0.00
  151                213.83    154.18     52.29      0.00
  153                 65.37    154.29     38.17      0.00
  157                 76.65    154.51     61.27      0.00
  159                 61.15    151.11     62.88      0.00
  161                 23.38    148.80     62.74      0.00
  163                 13.94    148.34     62.11      0.00
  164                  0.00    148.34     62.11      0.00
  166                  3.85    148.34     65.14      0.00
  167                 21.55    146.46     65.63      0.00
  169                  0.00    146.46     65.63      0.00
  171                 58.22    145.37     64.72      0.00
  173                  0.00    145.35     64.71      0.00
  177                 86.09    145.10     59.41      0.00
  179                  0.00    145.10     59.40      0.00
  181                  0.00    145.11     59.41      0.00
  183                  0.00    145.09     58.10      0.00
  184                  0.00    143.63     55.30      0.00
  185                 37.96    144.26     55.58      0.00
  187                  0.00    144.92     57.38      0.00
  189                159.72    145.30     61.23      0.00
  191                121.21    145.10     52.04      0.00
  193                105.54    145.22     55.12      0.00
  195                  0.00    145.30     56.24      0.00
  197                 25.22    145.10     52.91      0.00
  199                176.59    139.72     61.41      0.00
  201                 66.02    138.93     60.16      0.00
  203               4649.94    138.76     59.26      0.00
  204                  0.00    144.69     53.59      0.00
  205                 96.73    139.69     51.43      0.00
  206                  0.00    138.79     59.70      0.00
  207                102.70    138.95     56.31      0.00
  208                  0.00    138.60     53.12      0.00
  209                  1.29    138.27     60.78      0.00
  211                 12.83    138.16     56.83      0.00
  213                 20.63    138.08     56.80      0.00
  215                136.44    137.85     56.70      0.00
  217                 35.85    137.83     57.12      0.00
  219                 61.15    137.81     57.98      0.00
  225                 33.74    137.82     56.25      0.00
  229                 94.99    138.01     55.25      0.00
  231                 24.39    138.00     57.63      0.00
  237                 23.10    138.16     53.80      0.00
  239                 66.02    138.17     54.24      0.00
  241                  0.00    138.17     54.24      0.00
  243                  6.42    138.17     53.80      0.00
  247                104.16    138.19     52.08      0.00
  249                  0.00    138.19     52.08      0.00
  251                 35.76    138.22     46.89      0.00
  253                 80.69    138.52     44.42      0.00
  255                 59.78    138.58     48.35      0.00
  257                  0.00    151.13     58.12      0.00
  259                  0.00    150.67     54.45      0.00
  261                  0.00    149.00     64.56      0.00
  263                  0.00    148.83     64.49      0.00
  265                  0.00    147.05     63.72      0.00
  267                  0.00    145.32     53.87      0.00
  269                  0.00    145.75     63.15      0.00
  271                  0.00    145.18     60.31      0.00
  273                  0.00    139.69     57.06      0.00
  275                  0.00    138.95     55.87      0.00
  River           -13172.30    220.00      0.00      0.00  Reservoir
  Lake                 0.00    167.00      0.00      0.00  Reservoir
  1                  140.84    145.02      5.68      0.00  Tank
  2                 -443.60    139.85     10.12      0.00  Tank
  3                 1957.11    158.06     12.59      0.00  Tank
   
   
  Link Results at 0:05:00 hrs:
  ----------------------------------------------
                       Flow  Velocity  Headloss
  Link                  gpm       fps   /1000ft
  ----------------------------------------------
  20               -1957.11      0.08      0.00
  40                -140.84      0.01      0.00
  50                 443.60      0.02      0.00
  60               13172.30      9.34      8.95
  101                  0.00      0.00      0.00
  103                156.65      0.25      0.02
  105               -437.78      1.24      0.55
  107                 17.62      0.05      0.00
  109                -40.48      0.06      0.00
  111               -382.95      1.09      0.43
  112                485.22      1.38      0.66
  113               -130.38      0.37      0.06
  114                115.67      0.74      0.34
  115                -63.25      0.40      0.11
  116                -44.32      0.13      0.01
  117                655.75      1.86      1.16
  119               -741.25      2.10      1.46
  120               1193.88      3.39      3.52
  121               1069.00      3.03      2.87
  122                377.32      2.41      3.00
  123              10022.32      4.55      1.79
  125              13172.30      5.98      2.98
  129               2711.05      1.92      0.55
  131               2406.95      1.71      0.44
  133              -1957.11      2.00      0.73
  135                423.70      0.30      0.02
  137                 63.27      0.10      0.00
  145                360.43      2.30      2.76
  147                351.71      2.24      2.64
  149               -741.45      4.73     10.50
  151               -732.27      4.67     10.26
  153                404.31      1.15      0.47
  155                445.20      1.26      0.57
  159               -457.86      1.30      0.60
  161               -497.92      3.18      5.02
  163               -171.24      0.49      0.10
  169                236.61      1.51      1.27
  171                540.51      1.53      0.81
  173               8027.26      3.64      1.19
  175               7950.61      3.61      1.17
  177               7889.46      3.58      1.15
  179               7604.39      3.45      1.08
  180                  3.85      0.01      0.00
  181                  3.85      0.01      0.00
  183               7367.31      3.34      1.01
  185                -21.55      0.14      0.02
  186                327.63      2.09      2.31
  187               6712.20      3.05      0.85
  189               4884.15      2.22      0.47
  191              -1769.83      1.26      0.25
  193              -1624.54      1.15      0.21
  195                279.47      0.79      0.24
  197                193.38      0.55      0.12
  199                 52.54      0.15      0.01
  201               -140.84      0.40      0.07
  202                561.48      3.58      6.27
  203                271.82      1.73      1.64
  204                561.48      1.59      0.87
  205                327.63      0.93      0.32
  207                219.28      0.62      0.15
  209                180.74      1.15      0.77
  211                633.56      1.80      1.09
  213                146.89      0.42      0.07
  215                 60.36      0.17      0.01
  217               -270.75      0.77      0.23
  219               -261.68      0.74      0.21
  221                261.68      1.67      1.53
  223                 -2.65      0.01      0.00
  225                 22.57      0.06      0.00
  229               4884.15      3.46      1.41
  231               4591.58      3.26      1.25
  233               4649.94      3.30      1.49
  235                115.97      0.33      0.05
  237                465.90      1.32      0.62
  238                353.64      1.00      0.37
  239                 -9.55      0.03      0.00
  240                353.64      1.00      0.37
  241                353.64      1.00      0.37
  243                352.36      0.56      0.09
  245                322.07      0.51      0.08
  247                267.18      0.43      0.05
  249                130.74      0.21      0.01
  251                 61.15      0.13      0.01
  257                 33.74      0.10      0.00
  261                 34.25      0.22      0.04
  263                 24.39      0.07      0.00
  269                 17.46      0.05      0.00
  271                 85.12      0.54      0.19
  273                -90.77      0.26      0.03
  275                -54.77      0.16      0.01
  277                  6.42      0.02      0.00
  281                -61.19      0.25      0.03
  283               -102.03      0.29      0.04
  285                 23.88      0.07      0.00
  287               -189.23      0.77      0.28
  289                443.60      1.81      1.37
  291                 80.69      0.33      0.06
  293                113.91      0.73      0.33
  295                -78.15      0.22      0.02
  297                502.20      3.21      5.10
  299                241.31      1.54      1.31
  301                241.31      1.54      1.31
  303                260.90      1.67      1.52
  305                153.54      0.44      0.08
  307                414.44      1.18      0.50
  309                219.29      1.40      1.10
  311               -158.93      0.45      0.08
  313                499.38      1.42      0.70
  315              -1904.01      1.35      0.29
  317                114.83      0.73      0.33
  319                  1.14      0.00      0.00
  321               7586.60      3.44      1.07
  323               -124.38      0.35      0.05
  325                134.19      0.86      0.44
  329              13172.30      5.98      3.02
  330                  0.00      0.00      0.00
  333                 -0.00      0.00      0.00
  10                   0.00      0.00      0.00  Pump
  335              13172.30      0.00    -93.32  Pump
   
   
  Node Results at 0:10:00 hrs:
  --------------------------------------------------------
                     Demand      Head  Pressure  Chemical
  Node                  gpm        ft       psi      mg/L
  --------------------------------------------------------
  10                   0.00    144.29     -1.17      0.00
  15                 732.27    114.05     35.55      0.00
  20                   0.00    158.12     12.62      0.00
  35                1624.54    145.12     57.46      0.00
  40                   0.00    145.03      5.69      0.00
  50                   0.00    139.69     10.05      0.00
  60                   0.00    208.99     90.56      0.00
  601                  0.00    302.32    130.99      0.00
  61                   0.00    302.32    130.99      0.00
  101                281.13    144.29     44.32      0.00
  103                197.14    144.26     43.88      0.00
  105                200.35    145.69     50.78      0.00
  107                 80.87    145.68     53.59      0.00
  109                342.47    144.27     53.72      0.00
  111                210.07    145.13     58.55      0.00
  113                 29.61    145.22     62.06      0.00
  115                 77.11    145.90     57.15      0.00
  117                174.21    149.08     58.70      0.00
  119                260.67    157.02     67.17      0.00
  120                  0.00    154.45     66.92      0.00
  121                 61.61    160.62     70.46      0.00
  123                  0.00    165.08     66.76      0.00
  125                 67.49    160.11     64.61      0.00
  127                 26.14    158.69     44.50      0.00
  129                  0.00    158.68     46.66      0.00
  131                 63.27    158.65     66.14      0.00
  139                  8.72    151.08     52.03      0.00
  141                 14.58    145.67     61.38      0.00
  143                  9.18    130.97     58.70      0.00
  145                 40.89    147.33     63.40      0.00
  147                 12.65    148.57     56.36      0.00
  149                 40.06    149.10     57.67      0.00
  151                213.83    154.22     52.31      0.00
  153                 65.37    154.33     38.19      0.00
  157                 76.65    154.54     61.29      0.00
  159                 61.15    151.13     62.89      0.00
  161                 23.38    148.82     62.75      0.00
  163                 13.94    148.36     62.12      0.00
  164                  0.00    148.36     62.12      0.00
  166                  3.85    148.36     65.15      0.00
  167                 21.55    146.47     65.63      0.00
  169                  0.00    146.47     65.63      0.00
  171                 58.22    145.39     64.73      0.00
  173                  0.00    145.36     64.72      0.00
  177                 86.09    145.12     59.41      0.00
  179                  0.00    145.11     59.41      0.00
  181                  0.00    145.12     59.42      0.00
  183                  0.00    145.11     58.11      0.00
  184                  0.00    143.64     55.31      0.00
  185                 37.96    144.27     55.58      0.00
  187                  0.00    144.93     57.38      0.00
  189                159.72    145.32     61.23      0.00
  191                121.21    145.12     52.05      0.00
  193                105.54    145.24     55.13      0.00
  195                  0.00    145.31     56.25      0.00
  197                 25.22    145.12     52.91      0.00
  199                176.59    139.72     61.41      0.00
  201                 66.02    138.93     60.15      0.00
  203               4649.94    138.75     59.25      0.00
  204                  0.00    144.70     53.60      0.00
  205                 96.73    139.68     51.43      0.00
  206                  0.00    138.76     59.69      0.00
  207                102.70    138.94     56.30      0.00
  208                  0.00    138.56     53.11      0.00
  209                  1.29    138.22     60.76      0.00
  211                 12.83    138.10     56.81      0.00
  213                 20.63    138.03     56.77      0.00
  215                136.44    137.79     56.67      0.00
  217                 35.85    137.77     57.10      0.00
  219                 61.15    137.76     57.96      0.00
  225                 33.74    137.76     56.23      0.00
  229                 94.99    137.95     55.22      0.00
  231                 24.39    137.94     57.60      0.00
  237                 23.10    138.09     53.77      0.00
  239                 66.02    138.11     54.21      0.00
  241                  0.00    138.11     54.21      0.00
  243                  6.42    138.11     53.78      0.00
  247                104.16    138.12     52.05      0.00
  249                  0.00    138.12     52.05      0.00
  251                 35.76    138.15     46.86      0.00
  253                 80.69    138.42     44.38      0.00
  255                 59.78    138.49     48.31      0.00
  257                  0.00    151.15     58.13      0.00
  259                  0.00    150.69     54.46      0.00
  261                  0.00    149.03     64.57      0.00
  263                  0.00    148.85     64.50      0.00
  265                  0.00    147.07     63.73      0.00
  267                  0.00    145.33     53.87      0.00
  269                  0.00    145.77     63.16      0.00
  271                  0.00    145.20     60.31      0.00
  273                  0.00    139.68     57.06      0.00
  275                  0.00    138.94     55.87      0.00
  River           -13170.94    220.00      0.00      0.00  Reservoir
  Lake                 0.00    167.00      0.00      0.00  Reservoir
  1                  139.00    145.03      5.69      0.00  Tank
  2                 -432.65    139.69     10.05      0.00  Tank
  3                 1946.63    158.12     12.62      0.00  Tank
   
   
  Link Results at 0:10:00 hrs:
  ----------------------------------------------
                       Flow  Velocity  Headloss
  Link                  gpm       fps   /1000ft
  ----------------------------------------------
  20               -1946.63      0.08      0.00
  40                -139.00      0.01      0.00
  50                 432.65      0.02      0.00
  60               13170.94      9.34      8.94
  101                  0.00      0.00      0.00
  103                156.95      0.25      0.02
  105               -438.07      1.24      0.55
  107                 17.79      0.05      0.00
  109                -40.19      0.06      0.00
  111               -382.66      1.09      0.43
  112                485.89      1.38      0.67
  113               -130.18      0.37      0.06
  114                115.87      0.74      0.34
  115                -63.07      0.40      0.11
  116                -43.92      0.12      0.01
  117                656.21      1.86      1.16
  119               -741.95      2.10      1.46
  120               1194.75      3.39      3.52
  121               1069.80      3.03      2.87
  122                377.62      2.41      3.01
  123              10030.82      4.55      1.80
  125              13170.94      5.98      2.98
  129               2700.88      1.92      0.55
  131               2396.64      1.70      0.44
  133              -1946.63      1.99      0.72
  135                423.87      0.30      0.02
  137                 63.27      0.10      0.00
  145                360.60      2.30      2.76
  147                351.89      2.25      2.64
  149               -741.45      4.73     10.50
  151               -732.27      4.67     10.26
  153                404.14      1.15      0.47
  155                445.03      1.26      0.57
  159               -457.68      1.30      0.60
  161               -497.75      3.18      5.02
  163               -171.38      0.49      0.10
  169                236.75      1.51      1.27
  171                540.20      1.53      0.81
  173               8035.19      3.65      1.19
  175               7958.55      3.61      1.17
  177               7897.39      3.58      1.15
  179               7612.17      3.46      1.08
  180                  3.85      0.01      0.00
  181                  3.85      0.01      0.00
  183               7375.01      3.35      1.02
  185                -21.55      0.14      0.02
  186                328.46      2.10      2.32
  187               6719.70      3.05      0.86
  189               4893.82      2.22      0.48
  191              -1767.65      1.25      0.25
  193              -1624.54      1.15      0.21
  195                277.48      0.79      0.24
  197                191.39      0.54      0.12
  199                 52.39      0.15      0.01
  201               -139.00      0.39      0.07
  202                562.77      3.59      6.30
  203                272.27      1.74      1.64
  204                562.77      1.60      0.87
  205                328.46      0.93      0.32
  207                219.88      0.62      0.15
  209                180.87      1.15      0.77
  211                633.76      1.80      1.09
  213                147.59      0.42      0.07
  215                 61.07      0.17      0.01
  217               -270.68      0.77      0.23
  219               -261.83      0.74      0.21
  221                261.83      1.67      1.53
  223                 -1.87      0.01      0.00
  225                 23.35      0.07      0.00
  229               4893.82      3.47      1.41
  231               4600.44      3.26      1.26
  233               4649.94      3.30      1.49
  235                116.78      0.33      0.05
  237                467.62      1.33      0.62
  238                364.60      1.03      0.39
  239                 -0.33      0.00      0.00
  240                364.60      1.03      0.39
  241                364.60      1.03      0.39
  243                363.31      0.58      0.10
  245                322.58      0.51      0.08
  247                267.18      0.43      0.05
  249                130.74      0.21      0.01
  251                 61.15      0.13      0.01
  257                 33.74      0.10      0.00
  261                 34.76      0.22      0.04
  263                 24.39      0.07      0.00
  269                 27.90      0.08      0.00
  271                 84.61      0.54      0.19
  273                -79.81      0.23      0.02
  275                -50.66      0.14      0.01
  277                  6.42      0.02      0.00
  281                -57.09      0.23      0.03
  283                -95.17      0.27      0.03
  285                 21.04      0.06      0.00
  287               -182.29      0.74      0.26
  289                432.65      1.77      1.31
  291                 80.69      0.33      0.06
  293                109.89      0.70      0.31
  295                -74.13      0.21      0.02
  297                502.58      3.21      5.11
  299                241.49      1.54      1.31
  301                241.49      1.54      1.31
  303                261.09      1.67      1.52
  305                153.64      0.44      0.08
  307                414.73      1.18      0.50
  309                219.38      1.40      1.10
  311               -158.31      0.45      0.08
  313                499.40      1.42      0.70
  315              -1902.02      1.35      0.28
  317                115.20      0.74      0.33
  319                  1.59      0.00      0.00
  321               7594.38      3.45      1.07
  323               -115.52      0.33      0.05
  325                134.37      0.86      0.44
  329              13170.94      5.98      3.02
  330                  0.00      0.00      0.00
  333                 -0.00      0.00      0.00
  10                   0.00      0.00      0.00  Pump
  335              13170.94      0.00    -93.33  Pump
   
   
  Node Results at 0:15:00 hrs:
  --------------------------------------------------------
                     Demand      Head  Pressure  Chemical
  Node                  gpm        ft       psi      mg/L
  --------------------------------------------------------
  10                   0.00    144.31     -1.17      0.00
  15                 732.27    114.09     35.57      0.00
  20                   0.00    158.19     12.65      0.00
  35                1624.54    145.13     57.47      0.00
  40                   0.00    145.05      5.70      0.00
  50                   0.00    139.55      9.99      0.00
  60                   0.00    208.99     90.56      0.00
  601                  0.00    302.33    131.00      0.00
  61                   0.00    302.33    131.00      0.00
  101                281.13    144.31     44.33      0.00
  103                197.14    144.28     43.89      0.00
  105                200.35    145.71     50.79      0.00
  107                 80.87    145.71     53.60      0.00
  109                342.47    144.29     53.72      0.00
  111                210.07    145.14     58.56      0.00
  113                 29.61    145.24     62.07      0.00
  115                 77.11    145.92     57.16      0.00
  117                174.21    149.10     58.71      0.00
  119                260.67    157.06     67.19      0.00
  120                  0.00    154.48     66.94      0.00
  121                 61.61    160.66     70.48      0.00
  123                  0.00    165.12     66.78      0.00
  125                 67.49    160.15     64.63      0.00
  127                 26.14    158.75     44.52      0.00
  129                  0.00    158.73     46.68      0.00
  131                 63.27    158.71     66.17      0.00
  139                  8.72    151.13     52.05      0.00
  141                 14.58    145.71     61.40      0.00
  143                  9.18    131.02     58.72      0.00
  145                 40.89    147.37     63.42      0.00
  147                 12.65    148.62     56.38      0.00
  149                 40.06    149.14     57.69      0.00
  151                213.83    154.26     52.32      0.00
  153                 65.37    154.37     38.20      0.00
  157                 76.65    154.57     61.30      0.00
  159                 61.15    151.16     62.90      0.00
  161                 23.38    148.85     62.76      0.00
  163                 13.94    148.38     62.13      0.00
  164                  0.00    148.38     62.13      0.00
  166                  3.85    148.38     65.16      0.00
  167                 21.55    146.49     65.64      0.00
  169                  0.00    146.49     65.64      0.00
  171                 58.22    145.40     64.73      0.00
  173                  0.00    145.38     64.72      0.00
  177                 86.09    145.13     59.42      0.00
  179                  0.00    145.13     59.42      0.00
  181                  0.00    145.14     59.42      0.00
  183                  0.00    145.12     58.12      0.00
  184                  0.00    143.65     55.31      0.00
  185                 37.96    144.28     55.59      0.00
  187                  0.00    144.95     57.39      0.00
  189                159.72    145.33     61.24      0.00
  191                121.21    145.14     52.05      0.00
  193                105.54    145.25     55.14      0.00
  195                  0.00    145.33     56.26      0.00
  197                 25.22    145.14     52.92      0.00
  199                176.59    139.71     61.40      0.00
  201                 66.02    138.92     60.15      0.00
  203               4649.94    138.74     59.25      0.00
  204                  0.00    144.71     53.61      0.00
  205                 96.73    139.68     51.42      0.00
  206                  0.00    138.74     59.68      0.00
  207                102.70    138.93     56.30      0.00
  208                  0.00    138.53     53.09      0.00
  209                  1.29    138.17     60.73      0.00
  211                 12.83    138.04     56.78      0.00
  213                 20.63    137.97     56.75      0.00
  215                136.44    137.74     56.65      0.00
  217                 35.85    137.71     57.07      0.00
  219                 61.15    137.70     57.93      0.00
  225                 33.74    137.70     56.20      0.00
  229                 94.99    137.88     55.20      0.00
  231                 24.39    137.88     57.58      0.00
  237                 23.10    138.03     53.74      0.00
  239                 66.02    138.04     54.18      0.00
  241                  0.00    138.04     54.18      0.00
  243                  6.42    138.04     53.75      0.00
  247                104.16    138.05     52.02      0.00
  249                  0.00    138.05     52.02      0.00
  251                 35.76    138.08     46.83      0.00
  253                 80.69    138.33     44.34      0.00
  255                 59.78    138.39     48.27      0.00
  257                  0.00    151.18     58.14      0.00
  259                  0.00    150.72     54.47      0.00
  261                  0.00    149.05     64.58      0.00
  263                  0.00    148.88     64.51      0.00
  265                  0.00    147.09     63.73      0.00
  267                  0.00    145.35     53.88      0.00
  269                  0.00    145.78     63.17      0.00
  271                  0.00    145.21     60.32      0.00
  273                  0.00    139.68     57.06      0.00
  275                  0.00    138.93     55.86      0.00
  River           -13169.57    220.00      0.00      0.00  Reservoir
  Lake                 0.00    167.00      0.00      0.00  Reservoir
  1                  137.33    145.05      5.70      0.00  Tank
  2                 -421.93    139.55      9.99      0.00  Tank
  3                 1936.22    158.19     12.65      0.00  Tank
   
   
  Link Results at 0:15:00 hrs:
  ----------------------------------------------
                       Flow  Velocity  Headloss
  Link                  gpm       fps   /1000ft
  ----------------------------------------------
  20               -1936.22      0.08      0.00
  40                -137.33      0.01      0.00
  50                 421.93      0.02      0.00
  60               13169.57      9.34      8.94
  101                  0.00      0.00      0.00
  103                157.24      0.25      0.02
  105               -438.36      1.24      0.55
  107                 17.97      0.05      0.00
  109                -39.90      0.06      0.00
  111               -382.37      1.08      0.43
  112                486.56      1.38      0.67
  113               -129.99      0.37      0.06
  114                116.08      0.74      0.34
  115                -62.90      0.40      0.11
  116                -43.52      0.12      0.01
  117                656.68      1.86      1.16
  119               -742.65      2.11      1.46
  120               1195.62      3.39      3.53
  121               1070.59      3.04      2.88
  122                377.92      2.41      3.01
  123              10039.27      4.56      1.80
  125              13169.57      5.98      2.98
  129               2690.77      1.91      0.54
  131               2386.40      1.69      0.43
  133              -1936.22      1.98      0.72
  135                424.05      0.30      0.02
  137                 63.27      0.10      0.00
  145                360.78      2.30      2.76
  147                352.06      2.25      2.64
  149               -741.45      4.73     10.50
  151               -732.27      4.67     10.26
  153                403.97      1.15      0.47
  155                444.86      1.26      0.57
  159               -457.51      1.30      0.60
  161               -497.58      3.18      5.01
  163               -171.51      0.49      0.10
  169                236.88      1.51      1.27
  171                539.90      1.53      0.81
  173               8043.08      3.65      1.19
  175               7966.43      3.62      1.17
  177               7905.27      3.59      1.16
  179               7619.91      3.46      1.08
  180                  3.85      0.01      0.00
  181                  3.85      0.01      0.00
  183               7382.66      3.35      1.02
  185                -21.55      0.14      0.02
  186                329.28      2.10      2.33
  187               6727.14      3.05      0.86
  189               4903.28      2.23      0.48
  191              -1765.63      1.25      0.25
  193              -1624.54      1.15      0.21
  195                275.64      0.78      0.23
  197                189.55      0.54      0.12
  199                 52.21      0.15      0.01
  201               -137.33      0.39      0.06
  202                564.02      3.60      6.32
  203                272.70      1.74      1.65
  204                564.02      1.60      0.88
  205                329.28      0.93      0.32
  207                220.49      0.63      0.15
  209                180.99      1.16      0.77
  211                633.97      1.80      1.09
  213                148.29      0.42      0.07
  215                 61.78      0.18      0.01
  217               -270.61      0.77      0.23
  219               -261.98      0.74      0.21
  221                261.98      1.67      1.53
  223                 -1.11      0.00      0.00
  225                 24.11      0.07      0.00
  229               4903.28      3.48      1.42
  231               4609.16      3.27      1.26
  233               4649.94      3.30      1.49
  235                117.52      0.33      0.05
  237                469.26      1.33      0.62
  238                375.31      1.06      0.41
  239                  8.75      0.02      0.00
  240                375.31      1.06      0.41
  241                375.31      1.06      0.41
  243                374.03      0.60      0.10
  245                323.25      0.52      0.08
  247                267.18      0.43      0.05
  249                130.74      0.21      0.01
  251                 61.15      0.13      0.01
  257                 33.74      0.10      0.00
  261                 35.43      0.23      0.04
  263                 24.39      0.07      0.00
  269                 37.94      0.11      0.01
  271                 83.94      0.54      0.19
  273                -69.10      0.20      0.02
  275                -46.65      0.13      0.01
  277                  6.42      0.02      0.00
  281                -53.08      0.22      0.03
  283                -88.47      0.25      0.03
  285                 18.28      0.05      0.00
  287               -175.51      0.72      0.25
  289                421.93      1.72      1.25
  291                 80.69      0.33      0.06
  293                105.95      0.68      0.29
  295                -70.19      0.20      0.02
  297                502.95      3.21      5.12
  299                241.66      1.54      1.32
  301                241.66      1.54      1.32
  303                261.29      1.67      1.52
  305                153.73      0.44      0.08
  307                415.02      1.18      0.50
  309                219.46      1.40      1.10
  311               -157.68      0.45      0.08
  313                499.43      1.42      0.70
  315              -1900.18      1.35      0.28
  317                115.55      0.74      0.34
  319                  1.97      0.01      0.00
  321               7602.12      3.45      1.08
  323               -106.80      0.30      0.04
  325                134.54      0.86      0.44
  329              13169.57      5.98      3.02
  330                  0.00      0.00      0.00
  333                 -0.00      0.00      0.00
  10                   0.00      0.00      0.00  Pump
  335              13169.57      0.00    -93.34  Pump
   
   
  Node Results at 0:20:00 hrs:
  --------------------------------------------------------
                     Demand      Head  Pressure  Chemical
  Node                  gpm        ft       psi      mg/L
  --------------------------------------------------------
  10                   0.00    144.33     -1.16      0.00
  15                 732.27    114.14     35.59      0.00
  20                   0.00    158.25     12.67      0.00
  35                1624.54    145.14     57.47      0.00
  40                   0.00    145.07      5.70      0.00
  50                   0.00    139.40      9.92      0.00
  60                   0.00    208.99     90.56      0.00
  601                  0.00    302.35    131.01      0.00
  61                   0.00    302.35    131.01      0.00
  101                281.13    144.33     44.34      0.00
  103                197.14    144.30     43.89      0.00
  105                200.35    145.73     50.79      0.00
  107                 80.87    145.73     53.61      0.00
  109                342.47    144.31     53.73      0.00
  111                210.07    145.16     58.56      0.00
  113                 29.61    145.26     62.07      0.00
  115                 77.11    145.94     57.17      0.00
  117                174.21    149.13     58.72      0.00
  119                260.67    157.09     67.20      0.00
  120                  0.00    154.51     66.95      0.00
  121                 61.61    160.70     70.50      0.00
  123                  0.00    165.16     66.80      0.00
  125                 67.49    160.20     64.65      0.00
  127                 26.14    158.80     44.54      0.00
  129                  0.00    158.79     46.70      0.00
  131                 63.27    158.76     66.19      0.00
  139                  8.72    151.18     52.07      0.00
  141                 14.58    145.76     61.42      0.00
  143                  9.18    131.06     58.74      0.00
  145                 40.89    147.42     63.44      0.00
  147                 12.65    148.66     56.40      0.00
  149                 40.06    149.18     57.71      0.00
  151                213.83    154.29     52.34      0.00
  153                 65.37    154.41     38.22      0.00
  157                 76.65    154.60     61.31      0.00
  159                 61.15    151.18     62.91      0.00
  161                 23.38    148.87     62.77      0.00
  163                 13.94    148.40     62.14      0.00
  164                  0.00    148.40     62.14      0.00
  166                  3.85    148.40     65.17      0.00
  167                 21.55    146.50     65.65      0.00
  169                  0.00    146.50     65.65      0.00
  171                 58.22    145.41     64.74      0.00
  173                  0.00    145.39     64.73      0.00
  177                 86.09    145.14     59.42      0.00
  179                  0.00    145.14     59.42      0.00
  181                  0.00    145.15     59.43      0.00
  183                  0.00    145.14     58.12      0.00
  184                  0.00    143.66     55.32      0.00
  185                 37.96    144.30     55.59      0.00
  187                  0.00    144.96     57.40      0.00
  189                159.72    145.35     61.25      0.00
  191                121.21    145.15     52.06      0.00
  193                105.54    145.27     55.15      0.00
  195                  0.00    145.35     56.26      0.00
  197                 25.22    145.15     52.93      0.00
  199                176.59    139.71     61.40      0.00
  201                 66.02    138.91     60.15      0.00
  203               4649.94    138.73     59.24      0.00
  204                  0.00    144.73     53.61      0.00
  205                 96.73    139.67     51.42      0.00
  206                  0.00    138.72     59.67      0.00
  207                102.70    138.92     56.29      0.00
  208                  0.00    138.50     53.08      0.00
  209                  1.29    138.11     60.71      0.00
  211                 12.83    137.99     56.76      0.00
  213                 20.63    137.91     56.72      0.00
  215                136.44    137.68     56.62      0.00
  217                 35.85    137.65     57.05      0.00
  219                 61.15    137.64     57.91      0.00
  225                 33.74    137.65     56.18      0.00
  229                 94.99    137.82     55.17      0.00
  231                 24.39    137.82     57.55      0.00
  237                 23.10    137.97     53.72      0.00
  239                 66.02    137.97     54.15      0.00
  241                  0.00    137.97     54.15      0.00
  243                  6.42    137.97     53.72      0.00
  247                104.16    137.99     51.99      0.00
  249                  0.00    137.98     51.99      0.00
  251                 35.76    138.01     46.80      0.00
  253                 80.69    138.24     44.30      0.00
  255                 59.78    138.30     48.23      0.00
  257                  0.00    151.21     58.15      0.00
  259                  0.00    150.75     54.49      0.00
  261                  0.00    149.08     64.59      0.00
  263                  0.00    148.90     64.52      0.00
  265                  0.00    147.11     63.74      0.00
  267                  0.00    145.37     53.89      0.00
  269                  0.00    145.80     63.18      0.00
  271                  0.00    145.22     60.33      0.00
  273                  0.00    139.67     57.05      0.00
  275                  0.00    138.92     55.86      0.00
  River           -13168.21    220.00      0.00      0.00  Reservoir
  Lake                 0.00    167.00      0.00      0.00  Reservoir
  1                  135.87    145.07      5.70      0.00  Tank
  2                 -411.50    139.40      9.92      0.00  Tank
  3                 1925.88    158.25     12.67      0.00  Tank
   
   
  Link Results at 0:20:00 hrs:
  ----------------------------------------------
                       Flow  Velocity  Headloss
  Link                  gpm       fps   /1000ft
  ----------------------------------------------
  20               -1925.88      0.08      0.00
  40                -135.87      0.01      0.00
  50                 411.50      0.02      0.00
  60               13168.21      9.34      8.94
  101                  0.00      0.00      0.00
  103                157.53      0.25      0.02
  105               -438.65      1.24      0.55
  107                 18.14      0.05      0.00
  109                -39.61      0.06      0.00
  111               -382.08      1.08      0.43
  112                487.23      1.38      0.67
  113               -129.79      0.37      0.06
  114                116.29      0.74      0.34
  115                -62.73      0.40      0.11
  116                -43.12      0.12      0.01
  117                657.14      1.86      1.16
  119               -743.35      2.11      1.46
  120               1196.48      3.39      3.53
  121               1071.38      3.04      2.88
  122                378.22      2.41      3.02
  123              10047.64      4.56      1.80
  125              13168.21      5.98      2.98
  129               2680.74      1.90      0.54
  131               2376.24      1.69      0.43
  133              -1925.88      1.97      0.71
  135                424.21      0.30      0.02
  137                 63.27      0.10      0.00
  145                360.94      2.30      2.77
  147                352.23      2.25      2.64
  149               -741.45      4.73     10.50
  151               -732.27      4.67     10.26
  153                403.80      1.15      0.47
  155                444.69      1.26      0.57
  159               -457.34      1.30      0.60
  161               -497.41      3.17      5.01
  163               -171.64      0.49      0.10
  169                237.01      1.51      1.27
  171                539.60      1.53      0.81
  173               8050.90      3.65      1.20
  175               7974.25      3.62      1.18
  177               7913.09      3.59      1.16
  179               7627.57      3.46      1.08
  180                  3.85      0.01      0.00
  181                  3.85      0.01      0.00
  183               7390.24      3.35      1.02
  185                -21.55      0.14      0.02
  186                330.09      2.11      2.35
  187               6734.51      3.06      0.86
  189               4912.49      2.23      0.48
  191              -1763.80      1.25      0.25
  193              -1624.54      1.15      0.21
  195                273.98      0.78      0.23
  197                187.89      0.53      0.11
  199                 52.01      0.15      0.01
  201               -135.87      0.39      0.06
  202                565.24      3.61      6.35
  203                273.12      1.74      1.65
  204                565.24      1.60      0.88
  205                330.09      0.94      0.33
  207                221.11      0.63      0.15
  209                181.11      1.16      0.77
  211                634.18      1.80      1.09
  213                148.97      0.42      0.07
  215                 62.48      0.18      0.01
  217               -270.54      0.77      0.23
  219               -262.14      0.74      0.21
  221                262.14      1.67      1.53
  223                 -0.35      0.00      0.00
  225                 24.87      0.07      0.00
  229               4912.49      3.48      1.42
  231               4617.49      3.27      1.27
  233               4649.94      3.30      1.49
  235                118.41      0.34      0.05
  237                471.04      1.34      0.63
  238                385.75      1.09      0.43
  239                 17.40      0.05      0.00
  240                385.75      1.09      0.43
  241                385.75      1.09      0.43
  243                384.46      0.61      0.11
  245                324.05      0.52      0.08
  247                267.18      0.43      0.05
  249                130.74      0.21      0.01
  251                 61.15      0.13      0.01
  257                 33.74      0.10      0.00
  261                 36.23      0.23      0.04
  263                 24.39      0.07      0.00
  269                 47.58      0.13      0.01
  271                 83.14      0.53      0.18
  273                -58.67      0.17      0.01
  275                -42.75      0.12      0.01
  277                  6.42      0.02      0.00
  281                -49.17      0.20      0.02
  283                -81.94      0.23      0.02
  285                 15.58      0.04      0.00
  287               -168.91      0.69      0.23
  289                411.50      1.68      1.19
  291                 80.69      0.33      0.06
  293                102.12      0.65      0.27
  295                -66.36      0.19      0.02
  297                503.32      3.21      5.12
  299                241.84      1.54      1.32
  301                241.84      1.54      1.32
  303                261.48      1.67      1.52
  305                153.82      0.44      0.08
  307                415.30      1.18      0.50
  309                219.55      1.40      1.10
  311               -157.06      0.45      0.08
  313                499.46      1.42      0.70
  315              -1898.52      1.35      0.28
  317                115.87      0.74      0.34
  319                  2.53      0.01      0.00
  321               7609.78      3.45      1.08
  323                -98.47      0.28      0.03
  325                134.72      0.86      0.45
  329              13168.21      5.98      3.02
  330                  0.00      0.00      0.00
  333                 -0.00      0.00      0.00
  10                   0.00      0.00      0.00  Pump
  335              13168.21      0.00    -93.35  Pump
   
   
  Node Results at 0:25:00 hrs:
  --------------------------------------------------------
                     Demand      Head  Pressure  Chemical
  Node                  gpm        ft       psi      mg/L
  --------------------------------------------------------
  10                   0.00    144.35     -1.15      0.00
  15                 732.27    114.18     35.61      0.00
  20                   0.00    158.31     12.70      0.00
  35                1624.54    145.16     57.48      0.00
  40                   0.00    145.08      5.71      0.00
  50                   0.00    139.26      9.86      0.00
  60                   0.00    209.00     90.56      0.00
  601                  0.00    302.36    131.01      0.00
  61                   0.00    302.36    131.01      0.00
  101                281.13    144.35     44.35      0.00
  103                197.14    144.32     43.90      0.00
  105                200.35    145.75     50.80      0.00
  107                 80.87    145.75     53.62      0.00
  109                342.47    144.33     53.74      0.00
  111                210.07    145.18     58.57      0.00
  113                 29.61    145.27     62.08      0.00
  115                 77.11    145.96     57.18      0.00
  117                174.21    149.15     58.73      0.00
  119                260.67    157.13     67.22      0.00
  120                  0.00    154.54     66.96      0.00
  121                 61.61    160.74     70.51      0.00
  123                  0.00    165.20     66.82      0.00
  125                 67.49    160.24     64.67      0.00
  127                 26.14    158.86     44.57      0.00
  129                  0.00    158.84     46.73      0.00
  131                 63.27    158.82     66.22      0.00
  139                  8.72    151.23     52.09      0.00
  141                 14.58    145.80     61.44      0.00
  143                  9.18    131.11     58.76      0.00
  145                 40.89    147.46     63.46      0.00
  147                 12.65    148.70     56.42      0.00
  149                 40.06    149.22     57.73      0.00
  151                213.83    154.33     52.36      0.00
  153                 65.37    154.45     38.24      0.00
  157                 76.65    154.63     61.33      0.00
  159                 61.15    151.21     62.92      0.00
  161                 23.38    148.89     62.78      0.00
  163                 13.94    148.42     62.14      0.00
  164                  0.00    148.42     62.14      0.00
  166                  3.85    148.42     65.18      0.00
  167                 21.55    146.52     65.65      0.00
  169                  0.00    146.52     65.65      0.00
  171                 58.22    145.43     64.75      0.00
  173                  0.00    145.40     64.74      0.00
  177                 86.09    145.16     59.43      0.00
  179                  0.00    145.16     59.43      0.00
  181                  0.00    145.17     59.43      0.00
  183                  0.00    145.15     58.13      0.00
  184                  0.00    143.67     55.32      0.00
  185                 37.96    144.31     55.60      0.00
  187                  0.00    144.98     57.40      0.00
  189                159.72    145.36     61.25      0.00
  191                121.21    145.17     52.07      0.00
  193                105.54    145.29     55.15      0.00
  195                  0.00    145.36     56.27      0.00
  197                 25.22    145.17     52.94      0.00
  199                176.59    139.70     61.40      0.00
  201                 66.02    138.90     60.14      0.00
  203               4649.94    138.72     59.24      0.00
  204                  0.00    144.74     53.62      0.00
  205                 96.73    139.66     51.42      0.00
  206                  0.00    138.70     59.67      0.00
[...]
  219                 71.48    138.53     58.29     77.82
  225                 39.44    138.53     56.56     78.00
  229                111.03    138.66     55.53     79.15
  231                 28.51    138.66     57.91     78.84
  237                 27.01    138.79     54.07     80.89
  239                 77.18    138.78     54.50     37.36
  241                  0.00    138.78     54.50      0.00
  243                  7.51    138.78     54.07      0.00
  247                121.76    138.78     52.34      0.00
  249                  0.00    138.78     52.34      0.00
  251                 41.80    138.79     47.14      0.00
  253                 94.32    138.85     44.56      0.00
  255                 69.87    138.93     48.50      0.00
  257                  0.00    150.99     58.06      0.00
  259                  0.00    150.53     54.39      0.00
  261                  0.00    148.89     64.52      0.00
  263                  0.00    148.72     64.44      0.00
  265                  0.00    148.15     64.19      0.00
  267                  0.00    146.38     54.33      0.00
  269                  0.00    146.93     63.67      0.00
  271                  0.00    146.56     60.90      0.00
  273                  0.00    141.82     57.98      0.00
  275                  0.00    141.26     56.87      0.00
  River           -13228.73    220.00      0.00      0.00  Reservoir
  Lake                 0.00    167.00      0.00      0.00  Reservoir
  1                 -534.81    147.45      6.74      0.00  Tank
  2                 -345.02    139.73     10.06      0.00  Tank
  3                  966.48    159.17     13.07      0.00  Tank
   
   
  Link Results at 23:55:00 hrs:
  ----------------------------------------------
                       Flow  Velocity  Headloss
  Link                  gpm       fps   /1000ft
  ----------------------------------------------
  20                -966.48      0.04      0.00
  40                 534.81      0.02      0.00
  50                 345.02      0.01      0.00
  60               13228.73      9.38      9.02
  101                  0.00      0.00      0.00
  103                117.27      0.19      0.01
  105               -445.88      1.26      0.57
  107                -18.71      0.05      0.00
  109               -113.17      0.18      0.01
  111               -513.49      1.46      0.74
  112                413.35      1.17      0.49
  113               -215.62      0.61      0.15
  114                 77.98      0.50      0.16
  115               -113.24      0.72      0.32
  116               -172.25      0.49      0.10
  117                661.36      1.88      1.18
  119               -694.70      1.97      1.29
  120               1196.70      3.39      3.53
  121               1060.84      3.01      2.83
  122                363.00      2.32      2.80
  123               9343.79      4.24      1.58
  125              11355.44      5.15      2.26
  129               1576.62      1.12      0.20
  131               1298.63      0.92      0.14
  133               -966.48      0.99      0.20
  135                301.60      0.21      0.01
  137                 73.96      0.12      0.01
  145                227.64      1.45      1.18
  147                217.45      1.39      1.08
  149               -318.79      2.03      2.20
  151               -308.06      1.97      2.06
  153                118.38      0.34      0.05
  155                166.18      0.47      0.09
  159               -180.97      0.51      0.11
  161               -227.80      1.45      1.18
  163               -122.69      0.35      0.05
  169                199.11      1.27      0.92
  171                355.06      1.01      0.37
  173               7487.34      3.40      1.05
  175               7397.74      3.36      1.02
  177               7326.26      3.33      1.00
  179               7033.36      3.19      0.93
  180                  4.50      0.01      0.00
  181                  4.50      0.01      0.00
  183               6791.22      3.08      0.87
  185                -25.19      0.16      0.02
  186                242.69      1.55      1.33
  187               6135.17      2.78      0.72
  189               4476.57      2.03      0.40
  191              -1590.54      1.13      0.20
  193              -1817.40      1.29      0.26
  195               -119.74      0.34      0.05
  197               -220.37      0.63      0.15
  199                314.44      0.89      0.30
  201                534.81      1.52      0.80
  202                497.15      3.17      5.01
  203                298.83      1.91      1.95
  204                497.15      1.41      0.69
  205                242.69      0.69      0.18
  207                -15.61      0.04      0.00
  209                233.33      1.49      1.23
  211                630.86      1.79      1.08
  213                  9.36      0.03      0.00
  215               -119.32      0.34      0.05
  217               -310.61      0.88      0.29
  219               -265.56      0.75      0.22
  221                265.56      1.70      1.57
  223               -159.56      0.45      0.08
  225               -130.08      0.37      0.06
  229               4476.57      3.17      1.20
  231               4076.47      2.89      1.01
  233               3870.10      2.74      1.06
  235                193.68      0.55      0.12
  237                478.68      1.36      0.65
  238                586.90      1.66      0.94
  239                228.27      0.65      0.16
  240                586.90      1.66      0.94
  241                586.90      1.66      0.94
  243                585.40      0.93      0.23
  245                397.12      0.63      0.11
  247                312.32      0.50      0.07
  249                152.83      0.24      0.02
  251                 71.48      0.15      0.01
  257                 39.44      0.11      0.01
  261                 60.69      0.39      0.10
  263                 28.51      0.08      0.00
  269                173.27      0.49      0.10
  271                 78.85      0.50      0.17
  273                 67.42      0.19      0.02
  275                  1.09      0.00      0.00
  277                  7.51      0.02      0.00
  281                 -6.42      0.03      0.00
  283                -10.85      0.03      0.00
  285                -16.55      0.05      0.00
  287               -111.62      0.46      0.11
  289                345.02      1.41      0.86
  291                 94.32      0.39      0.08
  293                 69.20      0.44      0.13
  295                -27.40      0.08      0.00
  297                498.86      3.18      5.04
  299                239.94      1.53      1.30
  301                239.94      1.53      1.30
  303                258.93      1.65      1.50
  305                162.50      0.46      0.09
  307                421.43      1.20      0.51
  309                221.35      1.41      1.12
  311               -340.67      0.97      0.34
  313                523.74      1.49      0.77
  315              -1697.66      1.20      0.23
  317                 99.07      0.63      0.25
  319                 94.61      0.27      0.03
  321               7012.57      3.18      0.93
  323                129.19      0.37      0.06
  325                107.12      0.68      0.29
  329              13228.73      6.00      3.04
  330                  0.00      0.00      0.00
  333                 -0.00      0.00      0.00
  10                   0.00      0.00      0.00  Pump
  335              13228.73      0.00    -92.82  Pump
   
   
  Node Results at 24:00:00 hrs:
  --------------------------------------------------------
                     Demand      Head  Pressure  Chemical
  Node                  gpm        ft       psi      mg/L
  --------------------------------------------------------
  10                   0.00    146.23     -0.33      0.00
  15                 732.27    115.43     36.15      0.00
  20                   0.00    159.20     13.09      0.00
  35                1624.54    147.21     58.37      0.00
  40                   0.00    147.39      6.71      0.00
  50                   0.00    139.61     10.01      0.00
  60                   0.00    209.06     90.59      0.00
  601                  0.00    302.80    131.20      0.00
  61                   0.00    302.80    131.20      0.00
  101                281.13    146.23     45.16      0.00
  103                197.14    146.21     44.72      0.00
  105                200.35    147.59     51.60      0.00
  107                 80.87    147.58     54.42      0.00
  109                342.47    146.21     54.56      0.00
  111                210.07    147.10     59.40      0.00
  113                 29.61    147.20     62.92      0.00
  115                 77.11    147.82     57.99      0.00
  117                174.21    150.87     59.48      0.00
  119                260.67    158.56     67.84      0.00
  120                  0.00    156.07     67.62      0.00
  121                 61.61    162.02     71.07      0.00
  123                  0.00    166.46     67.36      0.00
  125                 67.49    161.46     65.19      0.00
  127                 26.14    159.86     45.00      0.00
  129                  0.00    159.85     47.16      0.00
  131                 63.27    159.82     66.65      0.00
  139                  8.72    152.37     52.59      0.00
  141                 14.58    147.04     61.98      0.00
  143                  9.18    132.35     59.30      0.00
  145                 40.89    148.73     64.01      0.00
  147                 12.65    149.99     56.97      0.00
  149                 40.06    150.52     58.29      0.00
  151                213.83    155.70     52.95      0.00
  153                 65.37    155.81     38.83      0.00
  157                 76.65    156.18     62.00      0.00
  159                 61.15    152.91     63.66      0.00
  161                 23.38    150.70     63.57      0.00
  163                 13.94    150.26     62.94      0.00
  164                  0.00    150.26     62.94      0.00
  166                  3.85    150.26     65.97      0.00
  167                 21.55    148.45     66.49      0.00
  169                  0.00    148.45     66.49      0.00
  171                 58.22    147.41     65.61      0.00
  173                  0.00    147.39     65.60      0.00
  177                 86.09    147.22     60.32      0.00
  179                  0.00    147.22     60.32      0.00
  181                  0.00    147.22     60.32      0.00
  183                  0.00    147.21     59.02      0.00
  184                  0.00    145.61     56.16      0.00
  185                 37.96    146.27     56.45      0.00
  187                  0.00    146.93     58.25      0.00
  189                159.72    147.35     62.11      0.00
  191                121.21    147.10     52.91      0.00
  193                105.54    147.22     55.99      0.00
  195                  0.00    147.30     57.11      0.00
  197                 25.22    147.10     53.77      0.00
  199                176.59    141.48     62.17      0.00
  201                 66.02    140.65     60.90      0.00
  203               4649.94    140.47     60.00      0.00
  204                  0.00    146.70     54.47      0.00
  205                 96.73    141.43     52.18      0.00
  206                  0.00    140.27     60.35      0.41
  207                102.70    140.59     57.02      1.80
  208                  0.00    139.91     53.69      0.03
  209                  1.29    139.28     61.22      0.00
  211                 12.83    139.07     57.23      0.00
  213                 20.63    138.99     57.19      0.00
  215                136.44    138.76     57.09     82.68
  217                 35.85    138.73     57.51     83.60
  219                 61.15    138.72     58.37     77.80
  225                 33.74    138.73     56.64     77.79
  229                 94.99    138.82     55.60     79.41
  231                 24.39    138.81     57.98     79.03
  237                 23.10    138.92     54.13     82.65
  239                 66.02    138.91     54.56     36.17
  241                  0.00    138.91     54.56      0.00
  243                  6.42    138.91     54.12      0.00
  247                104.16    138.91     52.39      0.00
  249                  0.00    138.91     52.39      0.00
  251                 35.76    138.91     47.19      0.00
  253                 80.69    138.95     44.61      0.00
  255                 59.78    139.02     48.54      0.00
  257                  0.00    152.88     58.88      0.00
  259                  0.00    152.43     55.22      0.00
  261                  0.00    150.82     65.35      0.00
  263                  0.00    150.65     65.28      0.00
  265                  0.00    149.03     64.57      0.00
  267                  0.00    147.35     54.75      0.00
  269                  0.00    147.78     64.03      0.00
  271                  0.00    147.27     61.21      0.00
  273                  0.00    141.43     57.82      0.00
  275                  0.00    140.65     56.61      0.00
  River           -13124.43    220.00      0.00      0.00  Reservoir
  Lake                 0.00    167.00      0.00      0.00  Reservoir
  1                 -209.30    147.39      6.71      0.00  Tank
  2                 -293.88    139.61     10.01      0.00  Tank
  3                 2109.66    159.20     13.09      0.00  Tank
   
   
  Link Results at 24:00:00 hrs:
  ----------------------------------------------
                       Flow  Velocity  Headloss
  Link                  gpm       fps   /1000ft
  ----------------------------------------------
  20               -2109.66      0.09      0.00
  40                 209.30      0.01      0.00
  50                 293.88      0.01      0.00
  60               13124.43      9.31      8.89
  101                  0.00      0.00      0.00
  103                150.04      0.24      0.02
  105               -431.16      1.22      0.53
  107                 13.63      0.04      0.00
  109                -47.10      0.08      0.00
  111               -389.57      1.11      0.44
  112                470.03      1.33      0.63
  113               -136.14      0.39      0.06
  114                110.73      0.71      0.31
  115                -67.24      0.43      0.12
  116                -55.03      0.16      0.01
  117                645.14      1.83      1.13
  119               -725.10      2.06      1.40
  120               1173.89      3.33      3.41
  121               1050.78      2.98      2.78
  122                370.56      2.37      2.91
  123               9834.19      4.46      1.73
  125              13124.43      5.96      2.96
  129               2858.07      2.03      0.61
  131               2556.62      1.81      0.49
  133              -2109.66      2.15      0.84
  135                420.83      0.30      0.02
  137                 63.27      0.10      0.00
  145                357.56      2.28      2.72
  147                348.84      2.23      2.60
  149               -741.45      4.73     10.50
  151               -732.27      4.67     10.26
  153                407.19      1.16      0.48
  155                448.08      1.27      0.57
  159               -460.73      1.31      0.60
  161               -500.80      3.20      5.07
  163               -168.58      0.48      0.09
  169                233.95      1.49      1.24
  171                546.04      1.55      0.83
  173               7853.59      3.56      1.14
  175               7776.94      3.53      1.12
  177               7715.79      3.50      1.11
  179               7434.89      3.37      1.03
  180                  3.85      0.01      0.00
  181                  3.85      0.01      0.00
  183               7202.08      3.27      0.97
  185                -21.55      0.14      0.02
  186                327.90      2.09      2.32
  187               6563.87      2.98      0.82
  189               5016.13      2.28      0.50
  191              -1489.53      1.06      0.18
  193              -1624.54      1.15      0.21
  195                 -8.82      0.03      0.00
  197                -94.91      0.27      0.03
  199                114.39      0.32      0.05
  201                209.30      0.59      0.14
  202                579.23      3.70      6.64
  203                289.29      1.85      1.84
  204                579.23      1.64      0.92
  205                327.90      0.93      0.32
  207                174.90      0.50      0.10
  209                188.37      1.20      0.83
  211                616.65      1.75      1.04
  213                139.53      0.40      0.07
  215                 32.53      0.09      0.00
  217               -279.44      0.79      0.24
  219               -257.51      0.73      0.21
  221                257.51      1.64      1.48
  223                -18.69      0.05      0.00
  225                  6.53      0.02      0.00
  229               5016.13      3.56      1.48
  231               4704.99      3.34      1.31
  233               4649.94      3.30      1.49
  235                134.54      0.38      0.06
  237                498.77      1.41      0.70
  238                503.37      1.43      0.71
  239                107.29      0.30      0.04
  240                503.37      1.43      0.71
  241                503.37      1.43      0.71
  243                502.08      0.80      0.17
  245                339.96      0.54      0.08
  247                267.18      0.43      0.05
  249                130.74      0.21      0.01
  251                 61.15      0.13      0.01
  257                 33.74      0.10      0.00
  261                 52.14      0.33      0.08
  263                 24.39      0.07      0.00
  269                149.29      0.42      0.07
  271                 67.23      0.43      0.12
  273                 58.95      0.17      0.01
  275                  1.43      0.00      0.00
  277                  6.42      0.02      0.00
  281                 -5.00      0.02      0.00
  283                 -8.50      0.02      0.00
  285                -14.47      0.04      0.00
  287                -94.69      0.39      0.08
  289                293.88      1.20      0.64
  291                 80.69      0.33      0.06
  293                 58.73      0.37      0.10
  295                -22.97      0.07      0.00
  297                493.67      3.15      4.94
  299                237.22      1.51      1.27
  301                237.22      1.51      1.27
  303                256.45      1.64      1.47
  305                151.47      0.43      0.08
  307                407.92      1.16      0.48
  309                215.02      1.37      1.06
  311               -182.49      0.52      0.11
  313                490.46      1.39      0.68
  315              -1615.72      1.15      0.21
  317                118.27      0.75      0.35
  319                 16.28      0.05      0.00
  321               7417.10      3.37      1.03
  323                -10.98      0.03      0.00
  325                126.19      0.81      0.40
  329              13124.43      5.96      3.00
  330                  0.00      0.00      0.00
  333                 -0.00      0.00      0.00
  10                   0.00      0.00      0.00  Pump
  335              13124.43      0.00    -93.74  Pump
   
  Analysis ended Sat May 02 20:54:50 2020
