  Page 1                                    Wed May 06 17:07:03 2020

  ******************************************************************
  *                           E P A N E T                          *
  *                   Hydraulic and Water Quality                  *
  *                   Analysis for Pipe Networks                   *
  *                         Version 2.00.12                        *
  ******************************************************************
  
  Analysis begun Wed May 06 17:07:03 2020

   
  Hydraulic Status:
  -----------------------------------------------------------------------
     0:00:00: Balanced after 5 trials
     0:00:00: Reservoir River is emptying
     0:00:00: Reservoir Lake is closed
     0:00:00: Tank 1 is filling at 13.10 ft
     0:00:00: Tank 2 is emptying at 23.50 ft
     0:00:00: Tank 3 is filling at 29.00 ft
   
     0:05:00: Balanced after 2 trials
   
     0:10:00: Balanced after 2 trials
   
     0:15:00: Balanced after 2 trials
   
     0:20:00: Balanced after 2 trials
   
     0:25:00: Balanced after 2 trials
   
     0:30:00: Balanced after 2 trials
   
     0:35:00: Balanced after 2 trials
   
     0:40:00: Balanced after 2 trials
   
     0:45:00: Balanced after 2 trials
   
     0:50:00: Balanced after 2 trials
   
     0:55:00: Balanced after 2 trials
   
     1:00:00: Pump 10 changed by timer control
     1:00:00: Balanced after 7 trials
     1:00:00: Reservoir Lake is emptying
     1:00:00: Pump 10 changed from closed to open
   
     1:05:00: Balanced after 2 trials
   
     1:10:00: Balanced after 2 trials
   
     1:15:00: Balanced after 2 trials
   
     1:20:00: Balanced after 2 trials
   
     1:25:00: Balanced after 2 trials
   
     1:30:00: Balanced after 2 trials
   
     1:35:00: Balanced after 2 trials
   
     1:40:00: Balanced after 2 trials
   
     1:45:00: Balanced after 2 trials
   
     1:50:00: Balanced after 2 trials
   
     1:55:00: Balanced after 2 trials
   
     2:00:00: Balanced after 3 trials
     2:00:00: Tank 2 is filling at 21.67 ft
   
     2:05:00: Balanced after 1 trials
   
     2:10:00: Balanced after 1 trials
   
     2:15:00: Balanced after 1 trials
   
     2:20:00: Balanced after 1 trials
   
     2:25:00: Balanced after 1 trials
   
     2:30:00: Balanced after 1 trials
   
     2:35:00: Balanced after 1 trials
   
     2:40:00: Balanced after 1 trials
   
     2:45:00: Balanced after 1 trials
   
     2:50:00: Balanced after 1 trials
   
     2:55:00: Balanced after 1 trials
   
     3:00:00: Balanced after 3 trials
     3:00:00: Tank 2 is emptying at 22.26 ft
   
     3:05:00: Balanced after 1 trials
   
     3:10:00: Balanced after 1 trials
   
     3:15:00: Balanced after 1 trials
   
     3:20:00: Balanced after 1 trials
   
     3:25:00: Balanced after 1 trials
   
     3:30:00: Balanced after 1 trials
     3:30:00: Tank 2 is filling at 22.24 ft
   
     3:35:00: Balanced after 1 trials
   
     3:40:00: Balanced after 1 trials
   
     3:45:00: Balanced after 1 trials
   
     3:50:00: Balanced after 1 trials
   
     3:55:00: Balanced after 1 trials
   
     4:00:00: Balanced after 3 trials
   
     4:05:00: Balanced after 1 trials
   
     4:10:00: Balanced after 1 trials
   
     4:15:00: Balanced after 1 trials
   
     4:20:00: Balanced after 1 trials
   
     4:23:13: Pump 335 changed by Tank 1 control
     4:23:13: Pipe 330 changed by Tank 1 control
     4:23:13: Balanced after 4 trials
     4:23:13: Pipe 330 changed from closed to open
     4:23:13: Pump 335 changed from open to closed
   
     4:25:00: Balanced after 1 trials
   
     4:30:00: Balanced after 2 trials
   
     4:35:00: Balanced after 2 trials
   
     4:40:00: Balanced after 2 trials
   
     4:45:00: Balanced after 2 trials
   
     4:50:00: Balanced after 2 trials
   
     4:55:00: Balanced after 2 trials
   
     5:00:00: Balanced after 3 trials
     5:00:00: Tank 3 is emptying at 34.35 ft
   
     5:05:00: Balanced after 2 trials
   
     5:10:00: Balanced after 2 trials
   
     5:15:00: Balanced after 2 trials
   
     5:20:00: Balanced after 2 trials
   
     5:25:00: Balanced after 2 trials
   
     5:30:00: Balanced after 2 trials
   
     5:35:00: Balanced after 2 trials
   
     5:40:00: Balanced after 2 trials
   
     5:45:00: Balanced after 2 trials
   
     5:50:00: Balanced after 2 trials
   
     5:55:00: Balanced after 2 trials
   
     6:00:00: Balanced after 3 trials
     6:00:00: Tank 3 is filling at 34.12 ft
   
     6:05:00: Balanced after 2 trials
   
     6:10:00: Balanced after 2 trials
   
     6:15:00: Balanced after 2 trials
   
     6:20:00: Balanced after 2 trials
   
     6:25:00: Balanced after 2 trials
   
     6:30:00: Balanced after 2 trials
   
     6:35:00: Balanced after 2 trials
   
     6:40:00: Balanced after 2 trials
   
     6:45:00: Balanced after 2 trials
   
     6:50:00: Balanced after 2 trials
   
     6:55:00: Balanced after 2 trials
   
     7:00:00: Balanced after 3 trials
   
     7:05:00: Balanced after 1 trials
   
     7:10:00: Balanced after 1 trials
   
     7:15:00: Balanced after 1 trials
   
     7:20:00: Balanced after 1 trials
   
     7:25:00: Balanced after 1 trials
   
     7:30:00: Balanced after 1 trials
   
     7:35:00: Balanced after 1 trials
   
     7:40:00: Balanced after 1 trials
   
     7:45:00: Balanced after 1 trials
   
     7:50:00: Balanced after 1 trials
   
     7:55:00: Balanced after 1 trials
   
     8:00:00: Balanced after 2 trials
   
     8:05:00: Balanced after 1 trials
   
     8:10:00: Balanced after 1 trials
   
     8:15:00: Balanced after 1 trials
   
     8:20:00: Balanced after 1 trials
   
     8:25:00: Balanced after 1 trials
   
     8:30:00: Balanced after 1 trials
   
     8:35:00: Balanced after 1 trials
   
     8:40:00: Balanced after 1 trials
   
     8:45:00: Balanced after 1 trials
   
     8:50:00: Balanced after 1 trials
   
     8:55:00: Balanced after 1 trials
   
     9:00:00: Balanced after 4 trials
     9:00:00: Tank 3 is emptying at 35.34 ft
   
     9:05:00: Balanced after 2 trials
   
     9:10:00: Balanced after 2 trials
   
     9:15:00: Balanced after 2 trials
   
     9:20:00: Balanced after 2 trials
   
     9:25:00: Balanced after 2 trials
   
     9:30:00: Balanced after 2 trials
   
     9:35:00: Balanced after 2 trials
   
     9:40:00: Balanced after 2 trials
   
     9:45:00: Balanced after 2 trials
   
     9:50:00: Balanced after 2 trials
   
     9:55:00: Balanced after 2 trials
   
    10:00:00: Balanced after 3 trials
    10:00:00: Tank 1 is emptying at 22.48 ft
    10:00:00: Tank 2 is emptying at 27.71 ft
   
    10:05:00: Balanced after 1 trials
   
    10:10:00: Balanced after 1 trials
   
    10:15:00: Balanced after 1 trials
   
    10:20:00: Balanced after 1 trials
   
    10:25:00: Balanced after 1 trials
   
    10:30:00: Balanced after 1 trials
   
    10:35:00: Balanced after 1 trials
   
    10:40:00: Balanced after 1 trials
   
    10:45:00: Balanced after 1 trials
   
    10:50:00: Balanced after 1 trials
   
    10:55:00: Balanced after 1 trials
   
    11:00:00: Balanced after 3 trials
    11:00:00: Tank 2 is filling at 27.65 ft
   
    11:05:00: Balanced after 1 trials
   
    11:10:00: Balanced after 1 trials
   
    11:15:00: Balanced after 1 trials
   
    11:20:00: Balanced after 1 trials
   
    11:25:00: Balanced after 1 trials
   
    11:30:00: Balanced after 1 trials
   
    11:35:00: Balanced after 1 trials
   
    11:40:00: Balanced after 1 trials
   
    11:45:00: Balanced after 1 trials
    11:45:00: Tank 2 is emptying at 27.67 ft
   
    11:50:00: Balanced after 1 trials
   
    11:55:00: Balanced after 1 trials
   
    12:00:00: Balanced after 3 trials
   
    12:05:00: Balanced after 1 trials
   
    12:10:00: Balanced after 1 trials
   
    12:15:00: Balanced after 1 trials
   
    12:20:00: Balanced after 1 trials
   
    12:25:00: Balanced after 1 trials
   
    12:30:00: Balanced after 1 trials
   
    12:35:00: Balanced after 1 trials
   
    12:40:00: Balanced after 1 trials
   
    12:45:00: Balanced after 1 trials
   
    12:50:00: Balanced after 1 trials
   
    12:55:00: Balanced after 1 trials
   
    13:00:00: Balanced after 4 trials
    13:00:00: Tank 1 is filling at 21.67 ft
    13:00:00: Tank 2 is filling at 27.49 ft
   
    13:05:00: Balanced after 2 trials
   
    13:10:00: Balanced after 2 trials
   
    13:15:00: Balanced after 2 trials
   
    13:20:00: Balanced after 2 trials
   
    13:25:00: Balanced after 2 trials
   
    13:30:00: Balanced after 2 trials
   
    13:35:00: Balanced after 2 trials
   
    13:40:00: Balanced after 2 trials
   
    13:45:00: Balanced after 2 trials
   
    13:50:00: Balanced after 2 trials
   
    13:55:00: Balanced after 2 trials
   
    14:00:00: Balanced after 3 trials
   
    14:05:00: Balanced after 2 trials
   
    14:10:00: Balanced after 2 trials
   
    14:15:00: Balanced after 2 trials
   
    14:20:00: Balanced after 2 trials
   
    14:25:00: Balanced after 2 trials
   
    14:30:00: Balanced after 2 trials
   
    14:35:00: Balanced after 2 trials
   
    14:40:00: Balanced after 2 trials
   
    14:45:00: Balanced after 2 trials
   
    14:50:00: Balanced after 2 trials
   
    14:55:00: Balanced after 2 trials
   
    15:00:00: Pump 10 changed by timer control
    15:00:00: Balanced after 5 trials
    15:00:00: Reservoir Lake is closed
    15:00:00: Tank 1 is emptying at 22.18 ft
    15:00:00: Tank 2 is emptying at 28.41 ft
    15:00:00: Pump 10 changed from open to closed
   
    15:05:00: Balanced after 1 trials
   
    15:10:00: Balanced after 1 trials
   
    15:15:00: Balanced after 1 trials
   
    15:20:00: Balanced after 1 trials
   
    15:25:00: Balanced after 1 trials
   
    15:30:00: Balanced after 1 trials
   
    15:35:00: Balanced after 1 trials
   
    15:40:00: Balanced after 1 trials
   
    15:45:00: Balanced after 1 trials
   
    15:50:00: Balanced after 1 trials
   
    15:55:00: Balanced after 1 trials
   
    16:00:00: Balanced after 3 trials
   
    16:05:00: Balanced after 1 trials
   
    16:10:00: Balanced after 1 trials
   
    16:15:00: Balanced after 1 trials
   
    16:20:00: Balanced after 1 trials
   
    16:25:00: Balanced after 1 trials
   
    16:30:00: Balanced after 1 trials
   
    16:35:00: Balanced after 1 trials
   
    16:40:00: Balanced after 1 trials
   
    16:45:00: Balanced after 1 trials
   
    16:50:00: Balanced after 1 trials
   
    16:55:00: Balanced after 1 trials
   
    17:00:00: Balanced after 4 trials
    17:00:00: Tank 2 is filling at 26.76 ft
   
    17:05:00: Balanced after 2 trials
   
    17:10:00: Balanced after 2 trials
   
    17:15:00: Balanced after 2 trials
   
    17:20:00: Balanced after 2 trials
   
    17:25:00: Balanced after 2 trials
   
    17:30:00: Balanced after 2 trials
   
    17:35:00: Balanced after 2 trials
   
    17:40:00: Balanced after 2 trials
   
    17:45:00: Balanced after 2 trials
   
    17:50:00: Balanced after 2 trials
   
    17:55:00: Balanced after 2 trials
   
    18:00:00: Balanced after 3 trials
   
    18:05:00: Balanced after 2 trials
   
    18:10:00: Balanced after 2 trials
   
    18:15:00: Balanced after 2 trials
   
    18:20:00: Balanced after 2 trials
   
    18:25:00: Balanced after 2 trials
   
    18:30:00: Balanced after 2 trials
   
    18:35:00: Balanced after 2 trials
   
    18:40:00: Balanced after 2 trials
   
    18:45:00: Balanced after 2 trials
   
    18:50:00: Balanced after 2 trials
   
    18:55:00: Balanced after 2 trials
   
    19:00:00: Balanced after 4 trials
    19:00:00: Tank 2 is emptying at 28.38 ft
   
    19:05:00: Balanced after 1 trials
   
    19:10:00: Balanced after 1 trials
   
    19:15:00: Balanced after 1 trials
   
    19:20:00: Balanced after 1 trials
   
    19:25:00: Balanced after 1 trials
   
    19:30:00: Balanced after 1 trials
   
    19:35:00: Balanced after 1 trials
   
    19:40:00: Balanced after 1 trials
   
    19:45:00: Balanced after 1 trials
   
    19:50:00: Balanced after 1 trials
   
    19:55:00: Balanced after 1 trials
   
    20:00:00: Balanced after 3 trials
   
    20:05:00: Balanced after 1 trials
   
    20:10:00: Balanced after 1 trials
   
    20:15:00: Balanced after 1 trials
   
    20:20:00: Balanced after 1 trials
   
    20:25:00: Balanced after 1 trials
   
    20:30:00: Balanced after 1 trials
   
    20:35:00: Balanced after 1 trials
   
    20:40:00: Balanced after 1 trials
   
    20:45:00: Balanced after 1 trials
   
    20:50:00: Balanced after 1 trials
   
    20:55:00: Balanced after 1 trials
   
    21:00:00: Balanced after 3 trials
   
    21:05:00: Balanced after 2 trials
   
    21:10:00: Balanced after 2 trials
   
    21:15:00: Balanced after 2 trials
   
    21:20:00: Balanced after 2 trials
   
    21:25:00: Balanced after 2 trials
   
    21:30:00: Balanced after 2 trials
   
    21:35:00: Balanced after 2 trials
   
    21:40:00: Balanced after 2 trials
   
    21:42:54: Pump 335 changed by Tank 1 control
    21:42:54: Pipe 330 changed by Tank 1 control
    21:42:54: Balanced after 5 trials
    21:42:54: Tank 3 is filling at 29.59 ft
    21:42:54: Pipe 330 changed from open to closed
    21:42:54: Pump 335 changed from closed to open
   
    21:45:00: Balanced after 2 trials
   
    21:50:00: Balanced after 2 trials
   
    21:55:00: Balanced after 2 trials
   
    22:00:00: Balanced after 3 trials
   
    22:05:00: Balanced after 2 trials
   
    22:10:00: Balanced after 2 trials
   
    22:15:00: Balanced after 2 trials
   
    22:20:00: Balanced after 2 trials
   
    22:25:00: Balanced after 2 trials
   
    22:30:00: Balanced after 2 trials
   
    22:35:00: Balanced after 2 trials
   
    22:40:00: Balanced after 2 trials
   
    22:45:00: Balanced after 2 trials
   
    22:50:00: Balanced after 2 trials
   
    22:55:00: Balanced after 2 trials
   
    23:00:00: Balanced after 4 trials
   
    23:05:00: Balanced after 2 trials
   
    23:10:00: Balanced after 2 trials
   
    23:15:00: Balanced after 2 trials
   
    23:20:00: Balanced after 2 trials
   
    23:25:00: Balanced after 2 trials
   
    23:30:00: Balanced after 2 trials
   
    23:35:00: Balanced after 2 trials
   
    23:40:00: Balanced after 2 trials
   
    23:45:00: Balanced after 2 trials
   
    23:50:00: Balanced after 2 trials
   
    23:55:00: Balanced after 2 trials
   
    24:00:00: Balanced after 4 trials
    24:00:00: Tank 1 is filling at 16.29 ft
   
   
  Node Results at 0:00:00 hrs:
  --------------------------------------------------------
                     Demand      Head  Pressure  Chemical
  Node                  gpm        ft       psi      mg/L
  --------------------------------------------------------
  10                   0.00    145.93     -0.47      0.00
  15                 734.66    114.66     35.82      0.00
  20                   0.00    158.00     12.57      0.00
  35                1547.05    146.08     57.88      0.00
  40                   0.00    145.00      5.68      0.00
  50                   0.00    140.00     10.18      0.00
  60                   0.00    209.01     90.57      0.00
  601                  0.00    302.48    131.06      0.00
  61                   0.00    302.48    131.06      0.00
  101                248.83    145.93     45.03      0.00
  103                174.49    145.90     44.58      0.00
  105                177.33    147.20     51.43      0.00
  107                 71.58    147.19     54.25      0.00
  109                303.13    145.90     54.42      0.00
  111                185.94    146.47     59.13      0.00
  113                 26.21    146.51     62.61      0.00
  115                 68.25    147.27     57.75      0.00
  117                154.20    150.32     59.24      0.00
  119                230.73    157.66     67.45      0.00
  120                  0.00    155.29     67.29      0.00
  121                 54.54    161.09     70.67      0.00
  123                  0.00    165.54     66.96      0.00
  125                 59.74    160.48     64.77      0.00
  127                 23.13    158.74     44.52      0.00
  129                  0.00    158.73     46.68      0.00
  131                 56.00    158.71     66.17      0.00
  139                  7.72    151.56     52.24      0.00
  141                 12.90    146.43     61.72      0.00
  143                  8.12    131.69     59.01      0.00
  145                 36.20    148.17     63.77      0.00
  147                 11.20    149.44     56.74      0.00
  149                 35.46    149.97     58.05      0.00
  151                189.27    155.07     52.68      0.00
  153                 57.86    155.18     38.56      0.00
  157                 67.84    155.27     61.60      0.00
  159                 54.13    151.98     63.25      0.00
  161                 20.70    149.75     63.15      0.00
  163                 12.34    149.30     62.52      0.00
  164                  0.00    149.30     62.52      0.00
  166                  3.41    149.30     65.56      0.00
  167                 19.07    147.46     66.06      0.00
  169                  0.00    147.47     66.06      0.00
  171                 51.54    146.40     65.17      0.00
  173                  0.00    146.38     65.16      0.00
  177                 76.20    146.06     59.82      0.00
  179                  0.00    146.04     59.81      0.00
  181                  0.00    146.08     59.83      0.00
  183                  0.00    146.04     58.51      0.00
  184                  0.00    144.86     55.83      0.00
  185                 33.60    145.43     56.08      0.00
  187                  0.00    146.13     57.90      0.00
  189                141.38    146.43     61.71      0.00
  191                107.29    146.41     52.61      0.00
  193                 93.42    146.50     55.68      0.00
  195                  0.00    146.57     56.79      0.00
  197                 22.32    146.42     53.48      0.00
  199                156.31    141.29     62.09      0.00
  201                 58.44    140.57     60.87      0.00
  203               4348.51    140.41     59.97      0.00
  204                  0.00    145.89     54.11      0.00
  205                 85.62    141.25     52.11      0.00
  206                  0.00    140.32     60.37      0.00
  207                 90.90    140.55     57.00      0.00
  208                  0.00    140.05     53.75      0.00
  209                  1.14    139.59     61.35      0.00
  211                 11.36    139.44     57.39      0.00
  213                 18.26    139.38     57.36      0.00
  215                120.77    139.19     57.28      0.00
  217                 31.73    139.17     57.70      0.00
  219                 54.13    139.16     58.56      0.00
  225                 29.87    139.16     56.83      0.00
  229                 84.08    139.26     55.79      0.00
  231                 21.59    139.25     58.17      0.00
  237                 20.45    139.34     54.31      0.00
  239                 58.44    139.34     54.74      0.00
  241                  0.00    139.34     54.74      0.00
  243                  5.69    139.34     54.31      0.00
  247                 92.20    139.34     52.58      0.00
  249                  0.00    139.34     52.58      0.00
  251                 31.65    139.35     47.38      0.00
  253                 71.42    139.41     44.81      0.00
  255                 52.91    139.46     48.73      0.00
  257                  0.00    152.25     58.60      0.00
  259                  0.00    151.82     54.95      0.00
  261                  0.00    150.28     65.12      0.00
  263                  0.00    150.12     65.05      0.00
  265                  0.00    148.05     64.15      0.00
  267                  0.00    146.52     54.39      0.00
  269                  0.00    146.82     63.62      0.00
  271                  0.00    146.17     60.74      0.00
  273                  0.00    141.25     57.74      0.00
  275                  0.00    140.57     56.58      0.00
  River           -13155.32    220.00      0.00      0.00  Reservoir
  Lake                 0.00    167.00      0.00      0.00  Reservoir
  1                  561.74    145.00      5.68      0.00  Tank
  2                 -280.99    140.00     10.18      0.00  Tank
  3                 2251.33    158.00     12.57      0.00  Tank
   
   
  Link Results at 0:00:00 hrs:
  ----------------------------------------------
                       Flow  Velocity  Headloss
  Link                  gpm       fps   /1000ft
  ----------------------------------------------
  20               -2251.33      0.09      0.00
  40                -561.74      0.02      0.00
  50                 280.99      0.01      0.00
  60               13155.32      9.33      8.92
  101                  0.00      0.00      0.00
  103                167.99      0.27      0.02
  105               -416.82      1.18      0.50
  107                 33.94      0.10      0.00
  109                 -6.50      0.01      0.00
  111               -309.64      0.88      0.29
  112                495.44      1.41      0.69
  113                -72.21      0.20      0.02
  114                124.26      0.79      0.38
  115                -37.64      0.24      0.04
  116                 25.84      0.07      0.00
  117                628.10      1.78      1.07
  119               -725.58      2.06      1.40
  120               1142.82      3.24      3.25
  121               1025.96      2.91      2.66
  122                365.07      2.33      2.83
  123               9769.97      4.43      1.71
  125              13155.32      5.97      2.97
  129               2965.75      2.10      0.65
  131               2679.96      1.90      0.54
  133              -2251.33      2.30      0.95
  135                405.50      0.29      0.02
  137                 56.00      0.09      0.00
  145                349.50      2.23      2.61
  147                341.78      2.18      2.50
  149               -742.78      4.74     10.53
  151               -734.66      4.69     10.32
  153                413.91      1.17      0.49
  155                450.10      1.28      0.58
  159               -461.30      1.31      0.60
  161               -496.76      3.17      5.00
  163               -168.18      0.48      0.09
  169                226.05      1.44      1.16
  171                517.85      1.47      0.75
  173               7878.58      3.58      1.15
  175               7810.74      3.55      1.13
  177               7756.61      3.52      1.12
  179               7487.81      3.40      1.05
  180                  3.41      0.01      0.00
  181                  3.41      0.01      0.00
  183               7267.19      3.30      0.99
  185                -19.07      0.12      0.01
  186                339.21      2.17      2.47
  187               6643.16      3.02      0.84
  189               4629.49      2.10      0.43
  191              -1962.13      1.39      0.30
  193              -1547.05      1.10      0.19
  195                558.75      1.59      0.86
  197                482.55      1.37      0.66
  199                -79.19      0.22      0.02
  201               -561.74      1.59      0.87
  202                534.96      3.41      5.73
  203                229.35      1.46      1.19
  204                534.96      1.52      0.80
  205                339.21      0.96      0.34
  207                308.54      0.88      0.29
  209                157.29      1.00      0.59
  211                604.95      1.72      1.00
  213                181.92      0.52      0.11
  215                145.93      0.41      0.07
  217               -239.46      0.68      0.18
  219               -248.10      0.70      0.19
  221                248.10      1.58      1.38
  223                 49.74      0.14      0.01
  225                 72.07      0.20      0.02
  229               4629.49      3.28      1.27
  231               4359.25      3.09      1.14
  233               4348.51      3.08      1.32
  235                113.93      0.32      0.05
  237                453.40      1.29      0.59
  238                424.68      1.20      0.52
  239                 62.17      0.18      0.01
  240                424.68      1.20      0.52
  241                424.68      1.20      0.52
  243                423.54      0.68      0.13
  245                297.40      0.47      0.07
  247                236.49      0.38      0.04
  249                115.73      0.18      0.01
  251                 54.13      0.11      0.01
  257                 29.87      0.08      0.00
  261                 42.64      0.27      0.05
  263                 21.59      0.06      0.00
  269                114.78      0.33      0.05
  271                 63.02      0.40      0.11
  273                 31.31      0.09      0.00
  275                 -6.73      0.02      0.00
  277                  5.69      0.02      0.00
  281                -12.41      0.05      0.00
  283                -20.40      0.06      0.00
  285                 -7.67      0.02      0.00
  287                -96.94      0.40      0.08
  289                280.99      1.15      0.59
  291                 71.42      0.29      0.05
  293                 59.72      0.38      0.10
  295                -28.07      0.08      0.00
  297                481.93      3.08      4.73
  299                231.54      1.48      1.22
  301                231.54      1.48      1.22
  303                250.39      1.60      1.41
  305                146.17      0.41      0.07
  307                396.56      1.12      0.46
  309                204.88      1.31      0.97
  311                -58.95      0.17      0.01
  313                461.28      1.31      0.60
  315              -2105.80      1.49      0.34
  317                109.87      0.70      0.31
  319                  4.06      0.01      0.00
  321               7472.07      3.39      1.04
  323                -47.70      0.14      0.01
  325                143.67      0.92      0.50
  329              13155.32      5.97      3.01
  330                  0.00      0.00      0.00
  333                 -0.00      0.00      0.00
  10                   0.00      0.00      0.00  Pump
  335              13155.32      0.00    -93.47  Pump
   
   
  Node Results at 0:05:00 hrs:
  --------------------------------------------------------
                     Demand      Head  Pressure  Chemical
  Node                  gpm        ft       psi      mg/L
  --------------------------------------------------------
  10                   0.00    145.97     -0.44      0.00
  15                 734.66    114.72     35.84      0.00
  20                   0.00    158.07     12.60      0.00
  35                1547.05    146.12     57.90      0.00
  40                   0.00    145.07      5.70      0.00
  50                   0.00    139.90     10.14      0.00
  60                   0.00    209.02     90.57      0.00
  601                  0.00    302.50    131.07      0.00
  61                   0.00    302.50    131.07      0.00
  101                248.83    145.97     45.05      0.00
  103                174.49    145.94     44.61      0.00
  105                177.33    147.25     51.45      0.00
  107                 71.58    147.24     54.27      0.00
  109                303.13    145.94     54.44      0.00
  111                185.94    146.52     59.15      0.00
  113                 26.21    146.55     62.63      0.00
  115                 68.25    147.32     57.77      0.00
  117                154.20    150.38     59.26      0.00
  119                230.73    157.72     67.47      0.00
  120                  0.00    155.35     67.31      0.00
  121                 54.54    161.15     70.69      0.00
  123                  0.00    165.60     66.99      0.00
  125                 59.74    160.54     64.80      0.00
  127                 23.13    158.81     44.55      0.00
  129                  0.00    158.80     46.71      0.00
  131                 56.00    158.78     66.20      0.00
  139                  7.72    151.62     52.27      0.00
  141                 12.90    146.49     61.74      0.00
  143                  8.12    131.75     59.04      0.00
  145                 36.20    148.23     63.79      0.00
  147                 11.20    149.50     56.76      0.00
  149                 35.46    150.03     58.08      0.00
  151                189.27    155.13     52.70      0.00
  153                 57.86    155.24     38.58      0.00
  157                 67.84    155.33     61.63      0.00
  159                 54.13    152.03     63.28      0.00
  161                 20.70    149.80     63.17      0.00
  163                 12.34    149.35     62.55      0.00
  164                  0.00    149.35     62.55      0.00
  166                  3.41    149.35     65.58      0.00
  167                 19.07    147.51     66.08      0.00
  169                  0.00    147.51     66.08      0.00
  171                 51.54    146.45     65.19      0.00
  173                  0.00    146.42     65.18      0.00
  177                 76.20    146.10     59.84      0.00
  179                  0.00    146.08     59.83      0.00
  181                  0.00    146.13     59.85      0.00
  183                  0.00    146.09     58.53      0.00
  184                  0.00    144.90     55.85      0.00
  185                 33.60    145.48     56.10      0.00
  187                  0.00    146.18     57.92      0.00
  189                141.38    146.48     61.73      0.00
  191                107.29    146.45     52.63      0.00
  193                 93.42    146.55     55.70      0.00
  195                  0.00    146.62     56.81      0.00
  197                 22.32    146.47     53.50      0.00
  199                156.31    141.31     62.10      0.00
  201                 58.44    140.59     60.88      0.00
  203               4348.51    140.44     59.98      0.00
  204                  0.00    145.93     54.13      0.00
  205                 85.62    141.28     52.12      0.00
  206                  0.00    140.33     60.37      0.00
  207                 90.90    140.57     57.01      0.00
  208                  0.00    140.05     53.75      0.00
  209                  1.14    139.57     61.34      0.00
  211                 11.36    139.41     57.37      0.00
  213                 18.26    139.34     57.34      0.00
  215                120.77    139.16     57.26      0.00
  217                 31.73    139.14     57.69      0.00
  219                 54.13    139.13     58.55      0.00
  225                 29.87    139.13     56.82      0.00
  229                 84.08    139.22     55.77      0.00
  231                 21.59    139.21     58.15      0.00
  237                 20.45    139.30     54.29      0.00
  239                 58.44    139.30     54.72      0.00
  241                  0.00    139.30     54.72      0.00
  243                  5.69    139.30     54.29      0.00
  247                 92.20    139.30     52.56      0.00
  249                  0.00    139.30     52.56      0.00
  251                 31.65    139.30     47.36      0.00
  253                 71.42    139.35     44.78      0.00
  255                 52.91    139.40     48.70      0.00
  257                  0.00    152.30     58.62      0.00
  259                  0.00    151.87     54.97      0.00
  261                  0.00    150.33     65.14      0.00
  263                  0.00    150.17     65.07      0.00
  265                  0.00    148.10     64.17      0.00
  267                  0.00    146.56     54.41      0.00
  269                  0.00    146.87     63.64      0.00
  271                  0.00    146.22     60.76      0.00
  273                  0.00    141.28     57.75      0.00
  275                  0.00    140.60     56.59      0.00
  River           -13153.42    220.00      0.00      0.00  Reservoir
  Lake                 0.00    167.00      0.00      0.00  Reservoir
  1                  556.01    145.07      5.70      0.00  Tank
  2                 -270.88    139.90     10.14      0.00  Tank
  3                 2245.04    158.07     12.60      0.00  Tank
   
   
  Link Results at 0:05:00 hrs:
  ----------------------------------------------
                       Flow  Velocity  Headloss
  Link                  gpm       fps   /1000ft
  ----------------------------------------------
  20               -2245.04      0.09      0.00
  40                -556.01      0.02      0.00
  50                 270.88      0.01      0.00
  60               13153.42      9.33      8.92
  101                  0.00      0.00      0.00
  103                168.12      0.27      0.02
  105               -416.96      1.18      0.50
  107                 34.03      0.10      0.00
  109                 -6.37      0.01      0.00
  111               -309.50      0.88      0.29
  112                495.75      1.41      0.69
  113                -71.98      0.20      0.02
  114                124.35      0.79      0.38
  115                -37.55      0.24      0.04
  116                 26.16      0.07      0.00
  117                628.32      1.78      1.07
  119               -725.90      2.06      1.40
  120               1143.21      3.24      3.25
  121               1026.32      2.91      2.66
  122                365.21      2.33      2.83
  123               9774.04      4.44      1.71
  125              13153.42      5.97      2.97
  129               2959.63      2.10      0.65
  131               2673.78      1.90      0.54
  133              -2245.04      2.29      0.94
  135                405.61      0.29      0.02
  137                 56.00      0.09      0.00
  145                349.60      2.23      2.61
  147                341.89      2.18      2.50
  149               -742.78      4.74     10.53
  151               -734.66      4.69     10.32
  153                413.80      1.17      0.49
  155                449.99      1.28      0.58
  159               -461.19      1.31      0.60
  161               -496.66      3.17      5.00
  163               -168.26      0.48      0.09
  169                226.12      1.44      1.16
  171                517.67      1.47      0.75
  173               7882.43      3.58      1.15
  175               7814.58      3.55      1.13
  177               7760.45      3.52      1.12
  179               7491.61      3.40      1.05
  180                  3.41      0.01      0.00
  181                  3.41      0.01      0.00
  183               7271.00      3.30      0.99
  185                -19.07      0.12      0.01
  186                339.78      2.17      2.47
  187               6647.11      3.02      0.84
  189               4638.38      2.11      0.43
  191              -1957.20      1.39      0.30
  193              -1547.05      1.10      0.19
  195                553.87      1.57      0.85
  197                477.66      1.36      0.65
  199                -78.35      0.22      0.02
  201               -556.01      1.58      0.85
  202                536.20      3.42      5.76
  203                230.02      1.47      1.20
  204                536.20      1.52      0.80
  205                339.78      0.96      0.34
  207                308.37      0.87      0.29
  209                157.50      1.01      0.60
  211                604.82      1.72      1.00
  213                182.27      0.52      0.11
  215                146.15      0.41      0.07
  217               -239.60      0.68      0.18
  219               -248.15      0.70      0.19
  221                248.15      1.58      1.38
  223                 49.96      0.14      0.01
  225                 72.29      0.21      0.02
  229               4638.38      3.29      1.28
  231               4366.67      3.10      1.14
  233               4348.51      3.08      1.32
  235                115.40      0.33      0.05
  237                455.91      1.29      0.59
  238                434.79      1.23      0.54
  239                 69.79      0.20      0.02
  240                434.79      1.23      0.54
  241                434.79      1.23      0.54
  243                433.65      0.69      0.13
  245                299.07      0.48      0.07
  247                236.49      0.38      0.04
  249                115.73      0.18      0.01
  251                 54.13      0.11      0.01
  257                 29.87      0.08      0.00
  261                 44.31      0.28      0.06
  263                 21.59      0.06      0.00
  269                123.23      0.35      0.05
  271                 61.35      0.39      0.10
  273                 41.43      0.12      0.01
  275                 -2.85      0.01      0.00
  277                  5.69      0.02      0.00
  281                 -8.53      0.03      0.00
  283                -14.17      0.04      0.00
  285                -10.16      0.03      0.00
  287                -90.57      0.37      0.07
  289                270.88      1.11      0.55
  291                 71.42      0.29      0.05
  293                 55.97      0.36      0.09
  295                -24.32      0.07      0.00
  297                482.10      3.08      4.73
  299                231.62      1.48      1.22
  301                231.62      1.48      1.22
  303                250.48      1.60      1.41
  305                146.22      0.41      0.07
  307                396.70      1.13      0.46
  309                204.86      1.31      0.97
  311                -58.71      0.17      0.01
  313                461.10      1.31      0.60
  315              -2100.92      1.49      0.34
  317                110.06      0.70      0.31
  319                  5.33      0.02      0.00
  321               7475.86      3.39      1.04
  323                -40.28      0.11      0.01
  325                143.71      0.92      0.50
  329              13153.42      5.97      3.01
  330                  0.00      0.00      0.00
  333                 -0.00      0.00      0.00
  10                   0.00      0.00      0.00  Pump
  335              13153.42      0.00    -93.48  Pump
   
   
  Node Results at 0:10:00 hrs:
  --------------------------------------------------------
                     Demand      Head  Pressure  Chemical
  Node                  gpm        ft       psi      mg/L
  --------------------------------------------------------
  10                   0.00    146.02     -0.42      0.00
  15                 734.66    114.78     35.87      0.00
  20                   0.00    158.14     12.63      0.00
  35                1547.05    146.17     57.92      0.00
  40                   0.00    145.13      5.73      0.00
  50                   0.00    139.81     10.10      0.00
  60                   0.00    209.02     90.57      0.00
  601                  0.00    302.52    131.08      0.00
  61                   0.00    302.52    131.08      0.00
  101                248.83    146.02     45.07      0.00
  103                174.49    145.99     44.63      0.00
  105                177.33    147.30     51.47      0.00
  107                 71.58    147.29     54.29      0.00
  109                303.13    145.99     54.46      0.00
  111                185.94    146.57     59.17      0.00
  113                 26.21    146.60     62.66      0.00
  115                 68.25    147.37     57.79      0.00
  117                154.20    150.43     59.29      0.00
  119                230.73    157.77     67.50      0.00
  120                  0.00    155.40     67.34      0.00
  121                 54.54    161.20     70.72      0.00
  123                  0.00    165.66     67.01      0.00
  125                 59.74    160.60     64.82      0.00
  127                 23.13    158.88     44.58      0.00
  129                  0.00    158.86     46.74      0.00
  131                 56.00    158.84     66.23      0.00
  139                  7.72    151.69     52.29      0.00
  141                 12.90    146.55     61.77      0.00
  143                  8.12    131.81     59.06      0.00
  145                 36.20    148.29     63.82      0.00
  147                 11.20    149.56     56.79      0.00
  149                 35.46    150.09     58.10      0.00
  151                189.27    155.19     52.73      0.00
  153                 57.86    155.29     38.60      0.00
  157                 67.84    155.38     61.65      0.00
  159                 54.13    152.08     63.30      0.00
  161                 20.70    149.84     63.19      0.00
  163                 12.34    149.39     62.57      0.00
  164                  0.00    149.39     62.57      0.00
  166                  3.41    149.39     65.60      0.00
  167                 19.07    147.56     66.10      0.00
  169                  0.00    147.56     66.10      0.00
  171                 51.54    146.49     65.21      0.00
  173                  0.00    146.47     65.20      0.00
  177                 76.20    146.15     59.86      0.00
  179                  0.00    146.13     59.85      0.00
  181                  0.00    146.17     59.87      0.00
  183                  0.00    146.13     58.55      0.00
  184                  0.00    144.94     55.87      0.00
  185                 33.60    145.52     56.12      0.00
  187                  0.00    146.22     57.94      0.00
  189                141.38    146.52     61.75      0.00
  191                107.29    146.50     52.65      0.00
  193                 93.42    146.59     55.72      0.00
  195                  0.00    146.66     56.83      0.00
  197                 22.32    146.51     53.52      0.00
  199                156.31    141.34     62.11      0.00
  201                 58.44    140.62     60.89      0.00
  203               4348.51    140.46     60.00      0.00
  204                  0.00    145.98     54.15      0.00
  205                 85.62    141.31     52.13      0.00
  206                  0.00    140.33     60.37      0.00
  207                 90.90    140.59     57.02      0.00
  208                  0.00    140.05     53.75      0.00
  209                  1.14    139.55     61.33      0.00
  211                 11.36    139.38     57.36      0.00
  213                 18.26    139.31     57.33      0.00
  215                120.77    139.13     57.25      0.00
  217                 31.73    139.11     57.68      0.00
  219                 54.13    139.10     58.54      0.00
  225                 29.87    139.10     56.81      0.00
  229                 84.08    139.18     55.76      0.00
  231                 21.59    139.17     58.14      0.00
  237                 20.45    139.26     54.27      0.00
  239                 58.44    139.25     54.70      0.00
  241                  0.00    139.25     54.70      0.00
  243                  5.69    139.25     54.27      0.00
  247                 92.20    139.25     52.54      0.00
  249                  0.00    139.25     52.54      0.00
  251                 31.65    139.25     47.34      0.00
  253                 71.42    139.29     44.75      0.00
  255                 52.91    139.34     48.68      0.00
  257                  0.00    152.35     58.65      0.00
  259                  0.00    151.92     55.00      0.00
  261                  0.00    150.38     65.16      0.00
  263                  0.00    150.22     65.09      0.00
  265                  0.00    148.14     64.19      0.00
  267                  0.00    146.61     54.43      0.00
  269                  0.00    146.91     63.66      0.00
  271                  0.00    146.26     60.78      0.00
  273                  0.00    141.31     57.76      0.00
  275                  0.00    140.62     56.60      0.00
  River           -13151.51    220.00      0.00      0.00  Reservoir
  Lake                 0.00    167.00      0.00      0.00  Reservoir
  1                  550.47    145.13      5.73      0.00  Tank
  2                 -261.02    139.81     10.10      0.00  Tank
  3                 2238.82    158.14     12.63      0.00  Tank
   
   
  Link Results at 0:10:00 hrs:
  ----------------------------------------------
                       Flow  Velocity  Headloss
  Link                  gpm       fps   /1000ft
  ----------------------------------------------
  20               -2238.82      0.09      0.00
  40                -550.47      0.02      0.00
  50                 261.02      0.01      0.00
  60               13151.51      9.33      8.92
  101                  0.00      0.00      0.00
  103                168.26      0.27      0.02
  105               -417.09      1.18      0.50
  107                 34.11      0.10      0.00
  109                 -6.23      0.01      0.00
  111               -309.37      0.88      0.29
  112                496.05      1.41      0.69
  113                -71.76      0.20      0.02
  114                124.45      0.79      0.39
  115                -37.46      0.24      0.04
  116                 26.47      0.08      0.00
  117                628.54      1.78      1.07
  119               -726.21      2.06      1.40
  120               1143.60      3.24      3.25
  121               1026.68      2.91      2.66
  122                365.35      2.33      2.83
  123               9778.04      4.44      1.71
  125              13151.51      5.97      2.97
  129               2953.59      2.09      0.64
  131               2667.66      1.89      0.53
  133              -2238.82      2.29      0.94
  135                405.71      0.29      0.02
  137                 56.00      0.09      0.00
  145                349.71      2.23      2.61
  147                341.99      2.18      2.50
  149               -742.78      4.74     10.53
  151               -734.66      4.69     10.32
  153                413.69      1.17      0.49
  155                449.89      1.28      0.58
  159               -461.09      1.31      0.60
  161               -496.55      3.17      5.00
  163               -168.33      0.48      0.09
  169                226.19      1.44      1.16
  171                517.49      1.47      0.75
  173               7886.22      3.58      1.15
  175               7818.37      3.55      1.13
  177               7764.24      3.52      1.12
  179               7495.34      3.40      1.05
  180                  3.41      0.01      0.00
  181                  3.41      0.01      0.00
  183               7274.75      3.30      0.99
  185                -19.07      0.12      0.01
  186                340.33      2.17      2.48
  187               6651.00      3.02      0.84
  189               4647.03      2.11      0.43
  191              -1952.43      1.38      0.30
  193              -1547.05      1.10      0.19
  195                549.14      1.56      0.84
  197                472.94      1.34      0.63
  199                -77.53      0.22      0.02
  201               -550.47      1.56      0.84
  202                537.40      3.43      5.78
  203                230.67      1.47      1.21
  204                537.40      1.52      0.80
  205                340.33      0.97      0.34
  207                308.20      0.87      0.29
  209                157.71      1.01      0.60
  211                604.69      1.72      1.00
  213                182.62      0.52      0.11
  215                146.36      0.42      0.07
  217               -239.73      0.68      0.18
  219               -248.20      0.70      0.19
  221                248.20      1.58      1.38
  223                 50.18      0.14      0.01
  225                 72.50      0.21      0.02
  229               4647.03      3.30      1.28
  231               4373.84      3.10      1.15
  233               4348.51      3.08      1.32
  235                116.88      0.33      0.05
  237                458.42      1.30      0.60
  238                444.65      1.26      0.56
  239                 77.13      0.22      0.02
  240                444.65      1.26      0.56
  241                444.65      1.26      0.56
  243                443.51      0.71      0.14
  245                300.75      0.48      0.07
  247                236.49      0.38      0.04
  249                115.73      0.18      0.01
  251                 54.13      0.11      0.01
  257                 29.87      0.08      0.00
  261                 46.00      0.29      0.06
  263                 21.59      0.06      0.00
  269                131.40      0.37      0.06
  271                 59.67      0.38      0.10
  273                 51.28      0.15      0.01
  275                  0.92      0.00      0.00
  277                  5.69      0.02      0.00
  281                 -4.77      0.02      0.00
  283                 -8.07      0.02      0.00
  285                -12.59      0.04      0.00
  287                -84.37      0.34      0.06
  289                261.02      1.07      0.51
  291                 71.42      0.29      0.05
  293                 52.31      0.33      0.08
  295                -20.66      0.06      0.00
  297                482.27      3.08      4.73
  299                231.70      1.48      1.22
  301                231.70      1.48      1.22
  303                250.57      1.60      1.41
  305                146.27      0.41      0.07
  307                396.84      1.13      0.46
  309                204.84      1.31      0.97
  311                -58.48      0.17      0.01
  313                460.92      1.31      0.60
  315              -2096.19      1.49      0.34
  317                110.24      0.70      0.31
  319                  6.64      0.02      0.00
  321               7479.60      3.39      1.04
  323                -33.11      0.09      0.00
  325                143.76      0.92      0.50
  329              13151.51      5.97      3.01
  330                  0.00      0.00      0.00
  333                 -0.00      0.00      0.00
  10                   0.00      0.00      0.00  Pump
  335              13151.51      0.00    -93.50  Pump
   
   
  Node Results at 0:15:00 hrs:
  --------------------------------------------------------
                     Demand      Head  Pressure  Chemical
  Node                  gpm        ft       psi      mg/L
  --------------------------------------------------------
  10                   0.00    146.07     -0.40      0.00
  15                 734.66    114.84     35.90      0.00
  20                   0.00    158.21     12.66      0.00
  35                1547.05    146.21     57.94      0.00
  40                   0.00    145.20      5.76      0.00
  50                   0.00    139.72     10.06      0.00
  60                   0.00    209.02     90.57      0.00
  601                  0.00    302.54    131.09      0.00
  61                   0.00    302.54    131.09      0.00
  101                248.83    146.07     45.09      0.00
  103                174.49    146.04     44.65      0.00
  105                177.33    147.34     51.50      0.00
  107                 71.58    147.34     54.31      0.00
  109                303.13    146.04     54.48      0.00
  111                185.94    146.61     59.20      0.00
  113                 26.21    146.65     62.68      0.00
  115                 68.25    147.42     57.81      0.00
  117                154.20    150.48     59.31      0.00
  119                230.73    157.83     67.52      0.00
  120                  0.00    155.46     67.36      0.00
  121                 54.54    161.26     70.74      0.00
  123                  0.00    165.71     67.04      0.00
  125                 59.74    160.66     64.85      0.00
  127                 23.13    158.94     44.61      0.00
  129                  0.00    158.93     46.77      0.00
  131                 56.00    158.91     66.26      0.00
  139                  7.72    151.75     52.32      0.00
  141                 12.90    146.61     61.79      0.00
  143                  8.12    131.87     59.09      0.00
  145                 36.20    148.35     63.85      0.00
  147                 11.20    149.62     56.81      0.00
  149                 35.46    150.15     58.13      0.00
  151                189.27    155.24     52.75      0.00
  153                 57.86    155.35     38.63      0.00
  157                 67.84    155.43     61.67      0.00
  159                 54.13    152.13     63.32      0.00
  161                 20.70    149.89     63.22      0.00
  163                 12.34    149.44     62.59      0.00
  164                  0.00    149.44     62.59      0.00
  166                  3.41    149.44     65.62      0.00
  167                 19.07    147.60     66.12      0.00
  169                  0.00    147.60     66.12      0.00
  171                 51.54    146.53     65.23      0.00
  173                  0.00    146.51     65.22      0.00
  177                 76.20    146.20     59.88      0.00
  179                  0.00    146.18     59.87      0.00
  181                  0.00    146.22     59.89      0.00
  183                  0.00    146.18     58.57      0.00
  184                  0.00    144.98     55.89      0.00
  185                 33.60    145.56     56.14      0.00
  187                  0.00    146.27     57.96      0.00
  189                141.38    146.57     61.77      0.00
  191                107.29    146.55     52.67      0.00
  193                 93.42    146.64     55.74      0.00
  195                  0.00    146.71     56.85      0.00
  197                 22.32    146.56     53.54      0.00
  199                156.31    141.37     62.12      0.00
  201                 58.44    140.64     60.90      0.00
  203               4348.51    140.49     60.01      0.00
  204                  0.00    146.02     54.17      0.00
  205                 85.62    141.33     52.14      0.00
  206                  0.00    140.34     60.38      0.00
  207                 90.90    140.61     57.03      0.00
  208                  0.00    140.04     53.75      0.00
  209                  1.14    139.52     61.32      0.00
  211                 11.36    139.35     57.35      0.00
  213                 18.26    139.28     57.32      0.00
  215                120.77    139.10     57.24      0.00
  217                 31.73    139.08     57.66      0.00
  219                 54.13    139.07     58.52      0.00
  225                 29.87    139.07     56.79      0.00
  229                 84.08    139.14     55.74      0.00
  231                 21.59    139.13     58.12      0.00
  237                 20.45    139.21     54.25      0.00
  239                 58.44    139.20     54.68      0.00
  241                  0.00    139.20     54.68      0.00
  243                  5.69    139.20     54.25      0.00
  247                 92.20    139.20     52.52      0.00
  249                  0.00    139.20     52.52      0.00
  251                 31.65    139.21     47.32      0.00
  253                 71.42    139.23     44.73      0.00
  255                 52.91    139.28     48.65      0.00
  257                  0.00    152.40     58.67      0.00
  259                  0.00    151.97     55.02      0.00
  261                  0.00    150.43     65.18      0.00
  263                  0.00    150.27     65.11      0.00
  265                  0.00    148.19     64.21      0.00
  267                  0.00    146.66     54.45      0.00
  269                  0.00    146.96     63.68      0.00
  271                  0.00    146.31     60.80      0.00
  273                  0.00    141.33     57.77      0.00
  275                  0.00    140.65     56.61      0.00
  River           -13149.61    220.00      0.00      0.00  Reservoir
  Lake                 0.00    167.00      0.00      0.00  Reservoir
  1                  545.11    145.20      5.76      0.00  Tank
  2                 -251.41    139.72     10.06      0.00  Tank
  3                 2232.66    158.21     12.66      0.00  Tank
   
   
  Link Results at 0:15:00 hrs:
  ----------------------------------------------
                       Flow  Velocity  Headloss
  Link                  gpm       fps   /1000ft
  ----------------------------------------------
  20               -2232.66      0.09      0.00
  40                -545.11      0.02      0.00
  50                 251.41      0.01      0.00
  60               13149.61      9.33      8.92
  101                  0.00      0.00      0.00
  103                168.39      0.27      0.02
  105               -417.23      1.18      0.50
  107                 34.20      0.10      0.00
  109                 -6.10      0.01      0.00
  111               -309.23      0.88      0.29
  112                496.34      1.41      0.69
  113                -71.55      0.20      0.02
  114                124.54      0.79      0.39
  115                -37.38      0.24      0.04
  116                 26.78      0.08      0.00
  117                628.76      1.78      1.07
  119               -726.51      2.06      1.40
  120               1143.99      3.25      3.25
  121               1027.04      2.91      2.66
  122                365.48      2.33      2.83
  123               9781.98      4.44      1.72
  125              13149.61      5.97      2.97
  129               2947.61      2.09      0.64
  131               2661.61      1.89      0.53
  133              -2232.66      2.28      0.93
  135                405.82      0.29      0.02
  137                 56.00      0.09      0.00
  145                349.81      2.23      2.61
  147                342.10      2.18      2.51
  149               -742.78      4.74     10.53
  151               -734.66      4.69     10.32
  153                413.59      1.17      0.49
  155                449.78      1.28      0.58
  159               -460.98      1.31      0.60
  161               -496.45      3.17      4.99
  163               -168.40      0.48      0.09
  169                226.26      1.44      1.17
  171                517.31      1.47      0.75
  173               7889.94      3.58      1.15
  175               7822.10      3.55      1.13
  177               7767.97      3.53      1.12
  179               7499.02      3.40      1.05
  180                  3.41      0.01      0.00
  181                  3.41      0.01      0.00
  183               7278.45      3.30      0.99
  185                -19.07      0.12      0.01
  186                340.87      2.18      2.49
  187               6654.81      3.02      0.84
  189               4655.47      2.11      0.43
  191              -1947.80      1.38      0.30
  193              -1547.05      1.10      0.19
  195                544.56      1.54      0.82
  197                468.36      1.33      0.62
  199                -76.75      0.22      0.02
  201               -545.11      1.55      0.82
  202                538.57      3.44      5.81
  203                231.30      1.48      1.21
  204                538.57      1.53      0.81
  205                340.87      0.97      0.35
  207                308.05      0.87      0.29
  209                157.91      1.01      0.60
  211                604.56      1.72      1.00
  213                182.96      0.52      0.11
  215                146.58      0.42      0.07
  217               -239.86      0.68      0.18
  219               -248.25      0.70      0.19
  221                248.25      1.58      1.38
  223                 50.39      0.14      0.01
  225                 72.71      0.21      0.02
  229               4655.47      3.30      1.29
  231               4380.78      3.11      1.15
  233               4348.51      3.08      1.32
  235                118.38      0.34      0.05
  237                460.94      1.31      0.60
  238                454.26      1.29      0.59
  239                 84.23      0.24      0.03
  240                454.26      1.29      0.59
  241                454.26      1.29      0.59
  243                453.12      0.72      0.14
  245                302.45      0.48      0.07
  247                236.49      0.38      0.04
  249                115.73      0.18      0.01
  251                 54.13      0.11      0.01
  257                 29.87      0.08      0.00
  261                 47.70      0.30      0.07
  263                 21.59      0.06      0.00
  269                139.32      0.40      0.07
  271                 57.97      0.37      0.09
  273                 60.90      0.17      0.01
  275                  4.70      0.01      0.00
  277                  5.69      0.02      0.00
  281                 -0.99      0.00      0.00
  283                 -2.24      0.01      0.00
  285                -14.85      0.04      0.00
  287                -78.34      0.32      0.06
  289                251.41      1.03      0.48
  291                 71.42      0.29      0.05
  293                 48.74      0.31      0.07
  295                -17.09      0.05      0.00
  297                482.43      3.08      4.74
  299                231.78      1.48      1.22
  301                231.78      1.48      1.22
  303                250.65      1.60      1.41
  305                146.33      0.42      0.07
  307                396.98      1.13      0.46
  309                204.83      1.31      0.97
  311                -58.25      0.17      0.01
  313                460.76      1.31      0.60
  315              -2091.61      1.48      0.34
  317                110.39      0.70      0.31
  319                  7.98      0.02      0.00
  321               7483.27      3.40      1.04
  323                -26.16      0.07      0.00
  325                143.81      0.92      0.50
  329              13149.61      5.97      3.01
  330                  0.00      0.00      0.00
  333                 -0.00      0.00      0.00
  10                   0.00      0.00      0.00  Pump
  335              13149.61      0.00    -93.52  Pump
   
   
  Node Results at 0:20:00 hrs:
  --------------------------------------------------------
                     Demand      Head  Pressure  Chemical
  Node                  gpm        ft       psi      mg/L
  --------------------------------------------------------
  10                   0.00    146.12     -0.38      0.00
  15                 734.66    114.90     35.92      0.00
  20                   0.00    158.28     12.69      0.00
  35                1547.05    146.26     57.96      0.00
  40                   0.00    145.26      5.79      0.00
  50                   0.00    139.64     10.03      0.00
  60                   0.00    209.03     90.57      0.00
  601                  0.00    302.56    131.10      0.00
  61                   0.00    302.56    131.10      0.00
  101                248.83    146.12     45.11      0.00
  103                174.49    146.09     44.67      0.00
  105                177.33    147.39     51.52      0.00
  107                 71.58    147.39     54.33      0.00
  109                303.13    146.09     54.50      0.00
  111                185.94    146.66     59.22      0.00
  113                 26.21    146.69     62.70      0.00
  115                 68.25    147.47     57.83      0.00
  117                154.20    150.53     59.33      0.00
  119                230.73    157.88     67.54      0.00
  120                  0.00    155.51     67.38      0.00
  121                 54.54    161.32     70.77      0.00
  123                  0.00    165.77     67.06      0.00
  125                 59.74    160.72     64.88      0.00
  127                 23.13    159.01     44.63      0.00
  129                  0.00    159.00     46.80      0.00
  131                 56.00    158.98     66.29      0.00
  139                  7.72    151.81     52.35      0.00
  141                 12.90    146.67     61.82      0.00
  143                  8.12    131.93     59.11      0.00
  145                 36.20    148.41     63.87      0.00
  147                 11.20    149.68     56.84      0.00
  149                 35.46    150.21     58.15      0.00
  151                189.27    155.30     52.78      0.00
  153                 57.86    155.41     38.65      0.00
  157                 67.84    155.49     61.70      0.00
  159                 54.13    152.18     63.34      0.00
  161                 20.70    149.94     63.24      0.00
  163                 12.34    149.49     62.61      0.00
  164                  0.00    149.49     62.61      0.00
  166                  3.41    149.49     65.64      0.00
  167                 19.07    147.65     66.14      0.00
  169                  0.00    147.65     66.14      0.00
  171                 51.54    146.58     65.25      0.00
  173                  0.00    146.56     65.24      0.00
  177                 76.20    146.24     59.90      0.00
  179                  0.00    146.22     59.89      0.00
  181                  0.00    146.27     59.91      0.00
  183                  0.00    146.23     58.59      0.00
  184                  0.00    145.02     55.91      0.00
  185                 33.60    145.61     56.16      0.00
  187                  0.00    146.31     57.98      0.00
  189                141.38    146.61     61.79      0.00
  191                107.29    146.59     52.69      0.00
  193                 93.42    146.69     55.76      0.00
  195                  0.00    146.76     56.87      0.00
  197                 22.32    146.61     53.56      0.00
  199                156.31    141.40     62.13      0.00
  201                 58.44    140.67     60.91      0.00
  203               4348.51    140.51     60.02      0.00
  204                  0.00    146.07     54.19      0.00
  205                 85.62    141.36     52.15      0.00
  206                  0.00    140.35     60.38      0.00
  207                 90.90    140.63     57.03      0.00
  208                  0.00    140.04     53.75      0.00
  209                  1.14    139.50     61.31      0.00
  211                 11.36    139.32     57.33      0.00
  213                 18.26    139.25     57.30      0.00
  215                120.77    139.07     57.22      0.00
  217                 31.73    139.05     57.65      0.00
  219                 54.13    139.04     58.51      0.00
  225                 29.87    139.04     56.78      0.00
  229                 84.08    139.10     55.72      0.00
  231                 21.59    139.10     58.10      0.00
  237                 20.45    139.17     54.24      0.00
  239                 58.44    139.16     54.66      0.00
  241                  0.00    139.16     54.66      0.00
  243                  5.69    139.16     54.23      0.00
  247                 92.20    139.16     52.50      0.00
  249                  0.00    139.16     52.50      0.00
  251                 31.65    139.16     47.30      0.00
  253                 71.42    139.17     44.71      0.00
  255                 52.91    139.23     48.63      0.00
  257                  0.00    152.45     58.69      0.00
  259                  0.00    152.03     55.04      0.00
  261                  0.00    150.48     65.20      0.00
  263                  0.00    150.32     65.13      0.00
  265                  0.00    148.23     64.23      0.00
  267                  0.00    146.70     54.47      0.00
  269                  0.00    147.00     63.70      0.00
  271                  0.00    146.35     60.82      0.00
  273                  0.00    141.36     57.78      0.00
  275                  0.00    140.67     56.62      0.00
  River           -13147.70    220.00      0.00      0.00  Reservoir
  Lake                 0.00    167.00      0.00      0.00  Reservoir
  1                  539.92    145.26      5.79      0.00  Tank
  2                 -242.03    139.64     10.03      0.00  Tank
  3                 2226.57    158.28     12.69      0.00  Tank
   
   
  Link Results at 0:20:00 hrs:
  ----------------------------------------------
                       Flow  Velocity  Headloss
  Link                  gpm       fps   /1000ft
  ----------------------------------------------
  20               -2226.57      0.09      0.00
  40                -539.92      0.02      0.00
  50                 242.03      0.01      0.00
  60               13147.70      9.32      8.91
  101                  0.00      0.00      0.00
  103                168.52      0.27      0.02
  105               -417.36      1.18      0.50
  107                 34.28      0.10      0.00
  109                 -5.97      0.01      0.00
  111               -309.10      0.88      0.29
  112                496.64      1.41      0.69
  113                -71.33      0.20      0.02
  114                124.63      0.80      0.39
  115                -37.30      0.24      0.04
  116                 27.09      0.08      0.00
  117                628.97      1.78      1.07
  119               -726.81      2.06      1.40
  120               1144.37      3.25      3.25
  121               1027.39      2.91      2.66
  122                365.62      2.33      2.83
  123               9785.85      4.44      1.72
  125              13147.70      5.97      2.97
  129               2941.70      2.09      0.64
  131               2655.63      1.88      0.53
  133              -2226.57      2.27      0.93
  135                405.92      0.29      0.02
  137                 56.00      0.09      0.00
  145                349.92      2.23      2.61
  147                342.20      2.18      2.51
  149               -742.78      4.74     10.53
  151               -734.66      4.69     10.32
  153                413.49      1.17      0.49
  155                449.68      1.28      0.58
  159               -460.88      1.31      0.60
  161               -496.34      3.17      4.99
  163               -168.47      0.48      0.09
  169                226.33      1.44      1.17
  171                517.14      1.47      0.75
  173               7893.61      3.58      1.15
  175               7825.77      3.55      1.14
  177               7771.64      3.53      1.12
  179               7502.64      3.41      1.05
  180                  3.41      0.01      0.00
  181                  3.41      0.01      0.00
  183               7282.08      3.31      0.99
  185                -19.07      0.12      0.01
  186                341.40      2.18      2.50
  187               6658.56      3.02      0.84
  189               4663.70      2.12      0.44
  191              -1943.33      1.38      0.30
  193              -1547.05      1.10      0.19
  195                540.13      1.53      0.81
  197                463.92      1.32      0.61
  199                -75.99      0.22      0.02
  201               -539.92      1.53      0.81
  202                539.72      3.44      5.83
  203                231.92      1.48      1.22
  204                539.72      1.53      0.81
  205                341.40      0.97      0.35
  207                307.91      0.87      0.29
  209                158.11      1.01      0.60
  211                604.45      1.71      1.00
  213                183.30      0.52      0.11
  215                146.80      0.42      0.07
  217               -239.99      0.68      0.18
  219               -248.30      0.70      0.19
  221                248.30      1.58      1.38
  223                 50.60      0.14      0.01
  225                 72.92      0.21      0.02
  229               4663.70      3.31      1.29
  231               4387.51      3.11      1.15
  233               4348.51      3.08      1.32
  235                119.88      0.34      0.05
  237                463.45      1.31      0.61
  238                463.64      1.32      0.61
  239                 91.09      0.26      0.03
  240                463.64      1.32      0.61
  241                463.64      1.32      0.61
  243                462.50      0.74      0.15
  245                304.15      0.49      0.07
  247                236.49      0.38      0.04
  249                115.73      0.18      0.01
  251                 54.13      0.11      0.01
  257                 29.87      0.08      0.00
  261                 49.40      0.32      0.07
  263                 21.59      0.06      0.00
  269                146.99      0.42      0.07
  271                 56.27      0.36      0.09
  273                 70.27      0.20      0.02
  275                  8.08      0.02      0.00
  277                  5.69      0.02      0.00
  281                  2.39      0.01      0.00
  283                  3.75      0.01      0.00
  285                -17.34      0.05      0.00
  287                -72.46      0.30      0.05
  289                242.03      0.99      0.45
  291                 71.42      0.29      0.05
  293                 45.24      0.29      0.06
  295                -13.59      0.04      0.00
  297                482.60      3.08      4.74
  299                231.86      1.48      1.22
  301                231.86      1.48      1.22
  303                250.74      1.60      1.41
  305                146.37      0.42      0.07
  307                397.11      1.13      0.46
  309                204.82      1.31      0.97
  311                -58.02      0.16      0.01
  313                460.59      1.31      0.60
  315              -2087.18      1.48      0.34
  317                110.53      0.71      0.31
  319                  9.35      0.03      0.00
  321               7486.89      3.40      1.05
  323                -19.44      0.06      0.00
  325                143.85      0.92      0.50
  329              13147.70      5.97      3.01
  330                  0.00      0.00      0.00
  333                 -0.00      0.00      0.00
  10                   0.00      0.00      0.00  Pump
  335              13147.70      0.00    -93.53  Pump
   
   
  Node Results at 0:25:00 hrs:
  --------------------------------------------------------
                     Demand      Head  Pressure  Chemical
  Node                  gpm        ft       psi      mg/L
  --------------------------------------------------------
  10                   0.00    146.16     -0.36      0.00
  15                 734.66    114.96     35.95      0.00
  20                   0.00    158.35     12.72      0.00
  35                1547.05    146.31     57.98      0.00
  40                   0.00    145.32      5.82      0.00
  50                   0.00    139.56      9.99      0.00
  60                   0.00    209.03     90.57      0.00
  601                  0.00    302.58    131.11      0.00
  61                   0.00    302.58    131.11      0.00
  101                248.83    146.16     45.13      0.00
  103                174.49    146.13     44.69      0.00
  105                177.33    147.44     51.54      0.00
  107                 71.58    147.43     54.35      0.00
  109                303.13    146.13     54.52      0.00
  111                185.94    146.71     59.24      0.00
  113                 26.21    146.74     62.72      0.00
  115                 68.25    147.51     57.85      0.00
  117                154.20    150.58     59.35      0.00
  119                230.73    157.94     67.57      0.00
  120                  0.00    155.56     67.41      0.00
  121                 54.54    161.38     70.79      0.00
  123                  0.00    165.83     67.09      0.00
  125                 59.74    160.78     64.90      0.00
  127                 23.13    159.08     44.66      0.00
  129                  0.00    159.06     46.82      0.00
  131                 56.00    159.04     66.31      0.00
  139                  7.72    151.88     52.38      0.00
  141                 12.90    146.73     61.85      0.00
  143                  8.12    131.99     59.14      0.00
  145                 36.20    148.47     63.90      0.00
  147                 11.20    149.73     56.86      0.00
  149                 35.46    150.27     58.18      0.00
  151                189.27    155.36     52.80      0.00
  153                 57.86    155.46     38.68      0.00
  157                 67.84    155.54     61.72      0.00
  159                 54.13    152.23     63.36      0.00
  161                 20.70    149.99     63.26      0.00
  163                 12.34    149.54     62.63      0.00
  164                  0.00    149.54     62.63      0.00
  166                  3.41    149.54     65.66      0.00
  167                 19.07    147.69     66.16      0.00
  169                  0.00    147.69     66.16      0.00
  171                 51.54    146.63     65.27      0.00
  173                  0.00    146.60     65.26      0.00
  177                 76.20    146.29     59.92      0.00
  179                  0.00    146.27     59.91      0.00
  181                  0.00    146.31     59.93      0.00
  183                  0.00    146.28     58.61      0.00
  184                  0.00    145.07     55.92      0.00
  185                 33.60    145.65     56.18      0.00
  187                  0.00    146.36     58.00      0.00
  189                141.38    146.66     61.82      0.00
  191                107.29    146.64     52.71      0.00
  193                 93.42    146.74     55.78      0.00
  195                  0.00    146.80     56.89      0.00
  197                 22.32    146.65     53.58      0.00
  199                156.31    141.42     62.15      0.00
  201                 58.44    140.70     60.92      0.00
  203               4348.51    140.54     60.03      0.00
  204                  0.00    146.11     54.21      0.00
  205                 85.62    141.39     52.16      0.00
  206                  0.00    140.36     60.39      0.00
  207                 90.90    140.65     57.04      0.00
  208                  0.00    140.04     53.75      0.00
  209                  1.14    139.48     61.30      0.00
  211                 11.36    139.29     57.32      0.00
[...]
  219                 64.87    139.73     58.81      0.00
  225                 35.80    139.74     57.08      0.00
  229                100.76    139.80     56.02      0.23
  231                 25.87    139.79     58.40      0.00
  237                 24.51    139.88     54.55      0.13
  239                 70.04    139.87     54.97      0.57
  241                  0.00    139.87     54.97      0.28
  243                  6.81    139.87     54.54      0.00
  247                110.50    139.87     52.80      0.00
  249                  0.00    139.87     52.80      0.00
  251                 37.93    139.87     47.60      0.00
  253                 85.60    139.87     45.01      0.00
  255                 63.41    139.94     48.94      0.00
  257                  0.00    152.46     58.69      0.00
  259                  0.00    152.03     55.04      0.00
  261                  0.00    150.50     65.21      0.00
  263                  0.00    150.34     65.14      0.00
  265                  0.00    149.36     64.72      0.00
  267                  0.00    147.73     54.91      0.00
  269                  0.00    148.20     64.22      0.00
  271                  0.00    147.81     61.45      0.00
  273                  0.00    142.87     58.44      0.00
  275                  0.00    142.25     57.30      0.01
  River           -13199.25    220.00      0.00      0.00  Reservoir
  Lake                 0.00    167.00      0.00      0.00  Reservoir
  1                 -369.88    148.24      7.08      0.00  Tank
  2                 -272.23    140.45     10.38      0.00  Tank
  3                 1086.88    159.98     13.42      0.00  Tank
   
   
  Link Results at 23:55:00 hrs:
  ----------------------------------------------
                       Flow  Velocity  Headloss
  Link                  gpm       fps   /1000ft
  ----------------------------------------------
  20               -1086.88      0.05      0.00
  40                 369.88      0.02      0.00
  50                 272.23      0.01      0.00
  60               13199.25      9.36      8.98
  101                  0.00      0.00      0.00
  103                126.01      0.20      0.01
  105               -424.23      1.20      0.52
  107                 -5.34      0.02      0.00
  109                -83.11      0.13      0.01
  111               -446.41      1.27      0.57
  112                421.14      1.19      0.51
  113               -173.46      0.49      0.10
  114                 90.46      0.58      0.21
  115                -91.13      0.58      0.22
  116               -114.42      0.32      0.05
  117                631.42      1.79      1.08
  119               -684.52      1.94      1.26
  120               1148.27      3.26      3.27
  121               1020.90      2.90      2.63
  122                352.48      2.25      2.65
  123               9159.65      4.16      1.52
  125              11245.92      5.10      2.22
  129               1668.43      1.18      0.22
  131               1404.42      1.00      0.16
  133              -1086.88      1.11      0.25
  135                289.81      0.21      0.01
  137                 67.12      0.11      0.00
  145                222.70      1.42      1.13
  147                213.45      1.36      1.05
  149               -331.34      2.11      2.36
  151               -321.61      2.05      2.23
  153                133.36      0.38      0.06
  155                176.74      0.50      0.10
  159               -190.16      0.54      0.12
  161               -232.66      1.49      1.23
  163               -123.06      0.35      0.05
  169                192.41      1.23      0.86
  171                336.43      0.95      0.34
  173               7398.42      3.36      1.02
  175               7317.11      3.32      1.00
  177               7252.24      3.29      0.99
  179               6973.59      3.17      0.92
  180                  4.08      0.01      0.00
  181                  4.08      0.01      0.00
  183               6742.73      3.06      0.86
  185                -22.86      0.15      0.02
  186                272.89      1.74      1.65
  187               6110.87      2.77      0.72
  189               4577.49      2.08      0.42
  191              -1471.63      1.04      0.18
  193              -1639.85      1.16      0.22
  195                -58.58      0.17      0.01
  197               -149.91      0.43      0.08
  199                219.97      0.62      0.15
  201                369.88      1.05      0.40
  202                519.09      3.31      5.42
  203                286.46      1.83      1.80
  204                519.09      1.47      0.75
  205                272.89      0.77      0.23
  207                 66.49      0.19      0.02
  209                202.56      1.29      0.95
  211                609.00      1.73      1.01
  213                 70.33      0.20      0.02
  215                -60.87      0.17      0.01
  217               -300.33      0.85      0.27
  219               -253.85      0.72      0.20
  221                253.85      1.62      1.44
  223               -101.41      0.29      0.04
  225                -74.66      0.21      0.02
  229               4577.49      3.25      1.25
  231               4219.95      2.99      1.07
  233               4054.15      2.88      1.16
  235                170.21      0.48      0.10
  237                482.65      1.37      0.66
  238                573.49      1.63      0.91
  239                199.79      0.57      0.13
  240                573.49      1.63      0.91
  241                573.49      1.63      0.91
  243                572.13      0.91      0.22
  245                367.86      0.59      0.10
  247                283.43      0.45      0.06
  249                138.69      0.22      0.02
  251                 64.87      0.14      0.01
  257                 35.80      0.10      0.01
  261                 62.55      0.40      0.11
  263                 25.87      0.07      0.00
  269                190.65      0.54      0.12
  271                 64.09      0.41      0.11
  273                102.05      0.29      0.04
  275                 16.24      0.05      0.00
  277                  6.81      0.02      0.00
  281                  9.43      0.04      0.00
  283                 15.77      0.04      0.00
  285                -25.36      0.07      0.00
  287                -75.71      0.31      0.05
  289                272.23      1.11      0.55
  291                 85.60      0.35      0.06
  293                 47.52      0.30      0.06
  295                 -9.58      0.03      0.00
  297                479.85      3.06      4.69
  299                230.68      1.47      1.21
  301                230.68      1.47      1.21
  303                249.17      1.59      1.39
  305                151.57      0.43      0.08
  307                400.74      1.14      0.47
  309                211.99      1.35      1.03
  311               -272.85      0.77      0.23
  313                499.35      1.42      0.70
  315              -1581.27      1.12      0.20
  317                104.03      0.66      0.28
  319                 66.17      0.19      0.02
  321               6954.72      3.16      0.91
  323                 95.76      0.27      0.03
  325                109.64      0.70      0.30
  329              13199.25      5.99      3.03
  330                  0.00      0.00      0.00
  333                 -0.00      0.00      0.00
  10                   0.00      0.00      0.00  Pump
  335              13199.25      0.00    -93.08  Pump
   
   
  Node Results at 24:00:00 hrs:
  --------------------------------------------------------
                     Demand      Head  Pressure  Chemical
  Node                  gpm        ft       psi      mg/L
  --------------------------------------------------------
  10                   0.00    148.30      0.56      0.00
  15                 734.66    116.77     36.73      0.00
  20                   0.00    160.02     13.44      0.00
  35                1547.05    148.55     58.95      0.00
  40                   0.00    148.19      7.06      0.00
  50                   0.00    140.36     10.34      0.00
  60                   0.00    209.12     90.61      0.00
  601                  0.00    303.20    131.38      0.00
  61                   0.00    303.20    131.38      0.00
  101                248.83    148.30     46.06      0.00
  103                174.49    148.27     45.62      0.01
  105                177.33    149.56     52.45      0.00
  107                 71.58    149.55     55.27      0.00
  109                303.13    148.27     55.45      0.00
  111                185.94    148.87     60.17      0.00
  113                 26.21    148.91     63.65      0.00
  115                 68.25    149.64     58.77      0.00
  117                154.20    152.62     60.24      0.00
  119                230.73    159.83     68.39      0.00
  120                  0.00    157.50     68.25      0.00
  121                 54.54    163.19     71.58      0.00
  123                  0.00    167.60     67.85      0.00
  125                 59.74    162.57     65.68      0.00
  127                 23.13    160.78     45.40      0.00
  129                  0.00    160.77     47.56      0.00
  131                 56.00    160.75     67.05      0.00
  139                  7.72    153.64     53.14      0.00
  141                 12.90    148.54     62.63      0.00
  143                  8.12    133.80     59.92      0.00
  145                 36.20    150.28     64.68      0.00
  147                 11.20    151.56     57.66      0.00
  149                 35.46    152.10     58.97      0.00
  151                189.27    157.21     53.61      0.00
  153                 57.86    157.32     39.48      0.00
  157                 67.84    157.49     62.56      0.00
  159                 54.13    154.27     64.25      0.00
  161                 20.70    152.09     64.17      0.00
  163                 12.34    151.65     63.54      0.00
  164                  0.00    151.65     63.54      4.19
  166                  3.41    151.65     66.58      0.00
  167                 19.07    149.85     67.10      0.00
  169                  0.00    149.85     67.10      0.00
  171                 51.54    148.81     66.21      0.00
  173                  0.00    148.79     66.20      0.00
  177                 76.20    148.54     60.90      0.00
  179                  0.00    148.53     60.89      0.00
  181                  0.00    148.55     60.90      0.00
  183                  0.00    148.53     59.59      0.00
  184                  0.00    147.23     56.86      0.00
  185                 33.60    147.84     57.12      0.00
  187                  0.00    148.54     58.95      0.00
  189                141.38    148.86     62.77      0.00
  191                107.29    148.81     53.65      0.00
  193                 93.42    148.90     56.72      0.00
  195                  0.00    148.97     57.83      0.00
  197                 22.32    148.82     54.52      0.00
  199                156.31    143.44     63.02      0.00
  201                 58.44    142.69     61.78      0.00
  203               4348.51    142.53     60.89      0.00
  204                  0.00    148.29     55.16      0.00
  205                 85.62    143.38     53.03      0.01
  206                  0.00    142.15     61.16      0.05
  207                 90.90    142.55     57.87      0.02
  208                  0.00    141.69     54.46      0.02
  209                  1.14    140.90     61.92      0.11
  211                 11.36    140.63     57.90      0.07
  213                 18.26    140.55     57.87      0.13
  215                120.77    140.37     57.79      0.54
  217                 31.73    140.35     58.21      0.00
  219                 54.13    140.34     59.08      0.00
  225                 29.87    140.34     57.34      0.00
  229                 84.08    140.25     56.22      0.11
  231                 21.59    140.25     58.60      0.00
  237                 20.45    140.28     54.72      0.16
  239                 58.44    140.23     55.13      0.21
  241                  0.00    140.23     55.13      0.27
  243                  5.69    140.22     54.69      0.00
  247                 92.20    140.22     52.96      0.00
  249                  0.00    140.22     52.96      0.00
  251                 31.65    140.21     47.76      0.00
  253                 71.42    140.17     45.14      0.00
  255                 52.91    140.22     49.06      0.00
  257                  0.00    154.51     59.58      0.00
  259                  0.00    154.09     55.94      0.00
  261                  0.00    152.58     66.11      0.00
  263                  0.00    152.42     66.04      0.00
  265                  0.00    150.43     65.18      0.00
  267                  0.00    148.93     55.43      0.00
  269                  0.00    149.23     64.66      0.00
  271                  0.00    148.63     61.80      0.00
  273                  0.00    143.39     58.66      0.00
  275                  0.00    142.68     57.49      0.01
  River           -13085.87    220.00      0.00      0.00  Reservoir
  Lake                 0.00    167.00      0.00      0.00  Reservoir
  1                  307.23    148.19      7.06      0.00  Tank
  2                 -134.74    140.36     10.34      0.00  Tank
  3                 2290.13    160.02     13.44      0.00  Tank
   
   
  Link Results at 24:00:00 hrs:
  ----------------------------------------------
                       Flow  Velocity  Headloss
  Link                  gpm       fps   /1000ft
  ----------------------------------------------
  20               -2290.13      0.10      0.00
  40                -307.23      0.01      0.00
  50                 134.74      0.01      0.00
  60               13085.87      9.28      8.84
  101                  0.00      0.00      0.00
  103                164.20      0.26      0.02
  105               -413.03      1.17      0.49
  107                 31.50      0.09      0.00
  109                -10.30      0.02      0.00
  111               -313.43      0.89      0.30
  112                486.99      1.38      0.67
  113                -79.64      0.23      0.02
  114                121.47      0.78      0.37
  115                -40.08      0.26      0.05
  116                 15.61      0.04      0.00
  117                621.87      1.76      1.05
  119               -716.78      2.03      1.37
  120               1131.52      3.21      3.19
  121               1015.73      2.88      2.61
  122                361.33      2.31      2.77
  123               9667.80      4.39      1.68
  125              13085.87      5.94      2.94
  129               3002.20      2.13      0.66
  131               2717.72      1.93      0.55
  133              -2290.13      2.34      0.98
  135                404.46      0.29      0.02
  137                 56.00      0.09      0.00
  145                348.46      2.22      2.59
  147                340.74      2.17      2.49
  149               -742.78      4.74     10.53
  151               -734.66      4.69     10.32
  153                414.94      1.18      0.50
  155                451.14      1.28      0.58
  159               -462.34      1.31      0.61
  161               -497.80      3.18      5.02
  163               -166.88      0.47      0.09
  169                224.74      1.43      1.15
  171                520.19      1.48      0.76
  173               7785.36      3.53      1.12
  175               7717.52      3.50      1.11
  177               7663.39      3.48      1.09
  179               7397.22      3.36      1.02
  180                  3.41      0.01      0.00
  181                  3.41      0.01      0.00
  183               7178.99      3.26      0.97
  185                -19.07      0.12      0.01
  186                340.59      2.17      2.48
  187               6567.81      2.98      0.82
  189               4757.03      2.16      0.45
  191              -1759.24      1.25      0.25
  193              -1547.05      1.10      0.19
  195                351.11      1.00      0.37
  197                274.91      0.78      0.23
  199                -32.32      0.09      0.00
  201               -307.23      0.87      0.28
  202                553.68      3.53      6.11
  203                246.70      1.57      1.37
  204                553.68      1.57      0.85
  205                340.59      0.97      0.34
  207                279.02      0.79      0.24
  209                162.08      1.03      0.63
  211                592.11      1.68      0.96
  213                178.51      0.51      0.10
  215                129.29      0.37      0.06
  217               -240.86      0.68      0.18
  219               -245.47      0.70      0.19
  221                245.47      1.57      1.35
  223                 44.94      0.13      0.01
  225                 67.26      0.19      0.02
  229               4757.03      3.37      1.34
  231               4460.67      3.16      1.19
  233               4348.51      3.08      1.32
  235                140.06      0.40      0.07
  237                496.35      1.41      0.69
  238                570.93      1.62      0.90
  239                165.49      0.47      0.09
  240                570.93      1.62      0.90
  241                570.93      1.62      0.90
  243                569.79      0.91      0.22
  245                326.20      0.52      0.08
  247                236.49      0.38      0.04
  249                115.73      0.18      0.01
  251                 54.13      0.11      0.01
  257                 29.87      0.08      0.00
  261                 71.45      0.46      0.14
  263                 21.59      0.06      0.00
  269                232.23      0.66      0.17
  271                 34.22      0.22      0.04
  273                177.57      0.50      0.10
  275                 48.15      0.14      0.01
  277                  5.69      0.02      0.00
  281                 42.47      0.17      0.02
  283                 70.97      0.20      0.02
  285                -48.31      0.14      0.01
  287                 -1.42      0.01      0.00
  289                134.74      0.55      0.15
  291                 71.42      0.29      0.05
  293                  8.99      0.06      0.00
  295                 22.66      0.06      0.00
  297                477.12      3.05      4.64
  299                229.23      1.46      1.19
  301                229.23      1.46      1.19
  303                247.89      1.58      1.38
  305                144.74      0.41      0.07
  307                392.64      1.11      0.45
  309                202.48      1.29      0.95
  311                -73.19      0.21      0.02
  313                453.19      1.29      0.59
  315              -1898.16      1.35      0.28
  317                111.77      0.71      0.32
  319                 28.29      0.08      0.00
  321               7381.47      3.35      1.02
  323                 53.72      0.15      0.01
  325                138.93      0.89      0.47
  329              13085.87      5.94      2.98
  330                  0.00      0.00      0.00
  333                 -0.00      0.00      0.00
  10                   0.00      0.00      0.00  Pump
  335              13085.87      0.00    -94.08  Pump
   
  Analysis ended Wed May 06 17:07:04 2020
