  Page 1                                    Wed May 06 17:09:20 2020

  ******************************************************************
  *                           E P A N E T                          *
  *                   Hydraulic and Water Quality                  *
  *                   Analysis for Pipe Networks                   *
  *                         Version 2.00.12                        *
  ******************************************************************
  
  Analysis begun Wed May 06 17:09:20 2020

   
  Hydraulic Status:
  -----------------------------------------------------------------------
     0:00:00: Balanced after 5 trials
     0:00:00: Reservoir River is emptying
     0:00:00: Reservoir Lake is closed
     0:00:00: Tank 1 is filling at 13.10 ft
     0:00:00: Tank 2 is emptying at 23.50 ft
     0:00:00: Tank 3 is filling at 29.00 ft
   
     0:05:00: Balanced after 2 trials
   
     0:10:00: Balanced after 2 trials
   
     0:15:00: Balanced after 2 trials
   
     0:20:00: Balanced after 2 trials
   
     0:25:00: Balanced after 2 trials
   
     0:30:00: Balanced after 2 trials
   
     0:35:00: Balanced after 2 trials
   
     0:40:00: Balanced after 2 trials
   
     0:45:00: Balanced after 2 trials
   
     0:50:00: Balanced after 2 trials
   
     0:55:00: Balanced after 2 trials
   
     1:00:00: Pump 10 changed by timer control
     1:00:00: Balanced after 7 trials
     1:00:00: Reservoir Lake is emptying
     1:00:00: Pump 10 changed from closed to open
   
     1:05:00: Balanced after 2 trials
   
     1:10:00: Balanced after 2 trials
   
     1:15:00: Balanced after 2 trials
   
     1:20:00: Balanced after 2 trials
   
     1:25:00: Balanced after 2 trials
   
     1:30:00: Balanced after 2 trials
   
     1:35:00: Balanced after 2 trials
   
     1:40:00: Balanced after 2 trials
   
     1:45:00: Balanced after 2 trials
   
     1:50:00: Balanced after 2 trials
   
     1:55:00: Balanced after 2 trials
   
     2:00:00: Balanced after 4 trials
     2:00:00: Tank 2 is filling at 20.31 ft
   
     2:05:00: Balanced after 1 trials
   
     2:10:00: Balanced after 1 trials
   
     2:15:00: Balanced after 1 trials
   
     2:20:00: Balanced after 1 trials
   
     2:25:00: Balanced after 1 trials
   
     2:30:00: Balanced after 1 trials
   
     2:35:00: Balanced after 1 trials
   
     2:40:00: Balanced after 1 trials
   
     2:45:00: Balanced after 1 trials
   
     2:50:00: Balanced after 1 trials
   
     2:55:00: Balanced after 1 trials
   
     3:00:00: Balanced after 3 trials
   
     3:05:00: Balanced after 1 trials
   
     3:10:00: Balanced after 1 trials
   
     3:15:00: Balanced after 1 trials
   
     3:20:00: Balanced after 1 trials
   
     3:25:00: Balanced after 1 trials
   
     3:30:00: Balanced after 1 trials
   
     3:35:00: Balanced after 1 trials
   
     3:40:00: Balanced after 1 trials
   
     3:45:00: Balanced after 1 trials
   
     3:50:00: Balanced after 1 trials
   
     3:55:00: Balanced after 1 trials
   
     4:00:00: Balanced after 3 trials
   
     4:05:00: Balanced after 1 trials
   
     4:10:00: Balanced after 1 trials
   
     4:15:00: Balanced after 1 trials
   
     4:20:00: Balanced after 1 trials
   
     4:20:09: Pump 335 changed by Tank 1 control
     4:20:09: Pipe 330 changed by Tank 1 control
     4:20:09: Balanced after 4 trials
     4:20:09: Pipe 330 changed from closed to open
     4:20:09: Pump 335 changed from open to closed
   
     4:25:00: Balanced after 2 trials
   
     4:30:00: Balanced after 2 trials
   
     4:35:00: Balanced after 2 trials
   
     4:40:00: Balanced after 2 trials
   
     4:45:00: Balanced after 2 trials
   
     4:50:00: Balanced after 2 trials
   
     4:55:00: Balanced after 2 trials
   
     5:00:00: Balanced after 4 trials
     5:00:00: Tank 1 is emptying at 19.86 ft
     5:00:00: Tank 3 is emptying at 34.34 ft
   
     5:05:00: Balanced after 1 trials
   
     5:10:00: Balanced after 1 trials
   
     5:15:00: Balanced after 1 trials
   
     5:20:00: Balanced after 1 trials
   
     5:25:00: Balanced after 1 trials
   
     5:30:00: Balanced after 1 trials
   
     5:35:00: Balanced after 1 trials
   
     5:40:00: Balanced after 1 trials
   
     5:45:00: Balanced after 1 trials
   
     5:50:00: Balanced after 1 trials
   
     5:55:00: Balanced after 1 trials
   
     6:00:00: Balanced after 3 trials
     6:00:00: Tank 1 is filling at 19.60 ft
     6:00:00: Tank 3 is filling at 34.02 ft
   
     6:05:00: Balanced after 1 trials
   
     6:10:00: Balanced after 1 trials
   
     6:15:00: Balanced after 1 trials
   
     6:20:00: Balanced after 1 trials
   
     6:25:00: Balanced after 1 trials
   
     6:30:00: Balanced after 1 trials
   
     6:35:00: Balanced after 1 trials
   
     6:40:00: Balanced after 1 trials
   
     6:45:00: Balanced after 1 trials
   
     6:50:00: Balanced after 1 trials
   
     6:55:00: Balanced after 1 trials
   
     7:00:00: Balanced after 3 trials
   
     7:05:00: Balanced after 1 trials
   
     7:10:00: Balanced after 1 trials
   
     7:15:00: Balanced after 1 trials
   
     7:20:00: Balanced after 1 trials
   
     7:25:00: Balanced after 1 trials
   
     7:30:00: Balanced after 1 trials
   
     7:35:00: Balanced after 1 trials
   
     7:40:00: Balanced after 1 trials
   
     7:45:00: Balanced after 1 trials
   
     7:50:00: Balanced after 1 trials
   
     7:55:00: Balanced after 1 trials
   
     8:00:00: Balanced after 3 trials
   
     8:05:00: Balanced after 1 trials
   
     8:10:00: Balanced after 1 trials
   
     8:15:00: Balanced after 1 trials
   
     8:20:00: Balanced after 1 trials
   
     8:25:00: Balanced after 1 trials
   
     8:30:00: Balanced after 1 trials
   
     8:35:00: Balanced after 1 trials
   
     8:40:00: Balanced after 1 trials
   
     8:45:00: Balanced after 1 trials
   
     8:50:00: Balanced after 1 trials
   
     8:55:00: Balanced after 1 trials
   
     9:00:00: Balanced after 4 trials
     9:00:00: Tank 3 is emptying at 34.82 ft
   
     9:05:00: Balanced after 2 trials
   
     9:10:00: Balanced after 2 trials
   
     9:15:00: Balanced after 2 trials
   
     9:20:00: Balanced after 2 trials
   
     9:25:00: Balanced after 2 trials
   
     9:30:00: Balanced after 2 trials
   
     9:35:00: Balanced after 2 trials
   
     9:40:00: Balanced after 2 trials
   
     9:45:00: Balanced after 2 trials
   
     9:50:00: Balanced after 2 trials
   
     9:55:00: Balanced after 2 trials
   
    10:00:00: Balanced after 3 trials
    10:00:00: Tank 1 is emptying at 21.54 ft
    10:00:00: Tank 2 is emptying at 26.77 ft
   
    10:05:00: Balanced after 1 trials
   
    10:10:00: Balanced after 1 trials
   
    10:15:00: Balanced after 1 trials
   
    10:20:00: Balanced after 1 trials
   
    10:25:00: Balanced after 1 trials
   
    10:30:00: Balanced after 1 trials
   
    10:35:00: Balanced after 1 trials
   
    10:40:00: Balanced after 1 trials
   
    10:45:00: Balanced after 1 trials
   
    10:50:00: Balanced after 1 trials
   
    10:55:00: Balanced after 1 trials
   
    11:00:00: Balanced after 4 trials
    11:00:00: Tank 1 is filling at 21.05 ft
    11:00:00: Tank 2 is filling at 26.21 ft
   
    11:05:00: Balanced after 2 trials
   
    11:10:00: Balanced after 2 trials
   
    11:15:00: Balanced after 2 trials
   
    11:20:00: Balanced after 2 trials
   
    11:25:00: Balanced after 2 trials
   
    11:30:00: Balanced after 2 trials
   
    11:35:00: Balanced after 2 trials
   
    11:40:00: Balanced after 2 trials
   
    11:45:00: Balanced after 2 trials
   
    11:50:00: Balanced after 2 trials
   
    11:55:00: Balanced after 2 trials
   
    12:00:00: Balanced after 3 trials
   
    12:05:00: Balanced after 2 trials
   
    12:10:00: Balanced after 2 trials
   
    12:15:00: Balanced after 2 trials
   
    12:20:00: Balanced after 2 trials
   
    12:25:00: Balanced after 2 trials
   
    12:30:00: Balanced after 2 trials
   
    12:35:00: Balanced after 2 trials
   
    12:40:00: Balanced after 2 trials
   
    12:45:00: Balanced after 2 trials
   
    12:50:00: Balanced after 2 trials
   
    12:55:00: Balanced after 2 trials
   
    13:00:00: Balanced after 3 trials
   
    13:05:00: Balanced after 2 trials
   
    13:10:00: Balanced after 2 trials
   
    13:15:00: Balanced after 1 trials
   
    13:20:00: Balanced after 1 trials
   
    13:25:00: Balanced after 1 trials
   
    13:30:00: Balanced after 1 trials
   
    13:35:00: Balanced after 1 trials
   
    13:40:00: Balanced after 1 trials
   
    13:45:00: Balanced after 1 trials
   
    13:50:00: Balanced after 1 trials
   
    13:55:00: Balanced after 1 trials
   
    14:00:00: Balanced after 4 trials
   
    14:05:00: Balanced after 2 trials
   
    14:10:00: Balanced after 2 trials
   
    14:15:00: Balanced after 2 trials
   
    14:20:00: Balanced after 2 trials
   
    14:25:00: Balanced after 2 trials
   
    14:30:00: Balanced after 2 trials
   
    14:35:00: Balanced after 2 trials
   
    14:40:00: Balanced after 2 trials
   
    14:45:00: Balanced after 2 trials
   
    14:50:00: Balanced after 2 trials
   
    14:55:00: Balanced after 2 trials
   
    15:00:00: Pump 10 changed by timer control
    15:00:00: Balanced after 5 trials
    15:00:00: Reservoir Lake is closed
    15:00:00: Tank 1 is emptying at 22.12 ft
    15:00:00: Pump 10 changed from open to closed
   
    15:05:00: Balanced after 2 trials
   
    15:10:00: Balanced after 2 trials
   
    15:15:00: Balanced after 2 trials
   
    15:20:00: Balanced after 2 trials
   
    15:25:00: Balanced after 2 trials
    15:25:00: Tank 2 is closed at 27.92 ft
   
    15:30:00: Balanced after 2 trials
    15:30:00: Tank 2 is emptying at 27.92 ft
   
    15:35:00: Balanced after 2 trials
   
    15:40:00: Balanced after 2 trials
   
    15:45:00: Balanced after 2 trials
   
    15:50:00: Balanced after 2 trials
   
    15:55:00: Balanced after 2 trials
   
    16:00:00: Balanced after 3 trials
   
    16:05:00: Balanced after 1 trials
   
    16:10:00: Balanced after 1 trials
   
    16:15:00: Balanced after 1 trials
   
    16:20:00: Balanced after 1 trials
   
    16:25:00: Balanced after 1 trials
   
    16:30:00: Balanced after 1 trials
   
    16:35:00: Balanced after 1 trials
   
    16:40:00: Balanced after 1 trials
   
    16:45:00: Balanced after 1 trials
   
    16:50:00: Balanced after 1 trials
   
    16:55:00: Balanced after 1 trials
   
    17:00:00: Balanced after 3 trials
   
    17:05:00: Balanced after 1 trials
   
    17:10:00: Balanced after 1 trials
   
    17:15:00: Balanced after 1 trials
   
    17:20:00: Balanced after 1 trials
   
    17:25:00: Balanced after 1 trials
   
    17:30:00: Balanced after 1 trials
   
    17:35:00: Balanced after 1 trials
   
    17:40:00: Balanced after 1 trials
   
    17:45:00: Balanced after 1 trials
   
    17:50:00: Balanced after 1 trials
   
    17:55:00: Balanced after 1 trials
   
    18:00:00: Balanced after 4 trials
    18:00:00: Tank 2 is filling at 26.00 ft
   
    18:05:00: Balanced after 2 trials
   
    18:10:00: Balanced after 2 trials
   
    18:15:00: Balanced after 2 trials
   
    18:20:00: Balanced after 2 trials
   
    18:25:00: Balanced after 2 trials
   
    18:30:00: Balanced after 2 trials
   
    18:35:00: Balanced after 2 trials
   
    18:40:00: Balanced after 2 trials
   
    18:45:00: Balanced after 2 trials
   
    18:50:00: Balanced after 2 trials
   
    18:55:00: Balanced after 2 trials
   
    19:00:00: Balanced after 4 trials
    19:00:00: Tank 2 is emptying at 26.56 ft
   
    19:05:00: Balanced after 1 trials
   
    19:10:00: Balanced after 1 trials
   
    19:15:00: Balanced after 1 trials
   
    19:20:00: Balanced after 1 trials
   
    19:25:00: Balanced after 1 trials
   
    19:30:00: Balanced after 1 trials
   
    19:35:00: Balanced after 1 trials
   
    19:40:00: Balanced after 1 trials
   
    19:45:00: Balanced after 1 trials
   
    19:50:00: Balanced after 1 trials
   
    19:55:00: Balanced after 1 trials
   
    20:00:00: Balanced after 4 trials
    20:00:00: Tank 2 is filling at 26.14 ft
   
    20:05:00: Balanced after 1 trials
   
    20:10:00: Balanced after 1 trials
   
    20:15:00: Balanced after 1 trials
    20:15:00: Tank 2 is emptying at 26.15 ft
   
    20:20:00: Balanced after 1 trials
   
    20:25:00: Balanced after 1 trials
   
    20:30:00: Balanced after 1 trials
   
    20:35:00: Balanced after 1 trials
   
    20:40:00: Balanced after 1 trials
   
    20:45:00: Balanced after 1 trials
   
    20:50:00: Balanced after 1 trials
   
    20:55:00: Balanced after 1 trials
   
    21:00:00: Balanced after 3 trials
   
    21:03:05: Pump 335 changed by Tank 1 control
    21:03:05: Pipe 330 changed by Tank 1 control
    21:03:05: Balanced after 5 trials
    21:03:05: Tank 3 is filling at 29.62 ft
    21:03:05: Pipe 330 changed from open to closed
    21:03:05: Pump 335 changed from closed to open
   
    21:05:00: Balanced after 1 trials
   
    21:10:00: Balanced after 2 trials
   
    21:15:00: Balanced after 2 trials
   
    21:20:00: Balanced after 2 trials
   
    21:25:00: Balanced after 2 trials
   
    21:30:00: Balanced after 2 trials
   
    21:35:00: Balanced after 2 trials
   
    21:40:00: Balanced after 2 trials
   
    21:45:00: Balanced after 2 trials
   
    21:50:00: Balanced after 2 trials
   
    21:55:00: Balanced after 2 trials
   
    22:00:00: Balanced after 3 trials
    22:00:00: Tank 1 is filling at 16.80 ft
   
    22:05:00: Balanced after 1 trials
   
    22:10:00: Balanced after 1 trials
   
    22:15:00: Balanced after 1 trials
   
    22:20:00: Balanced after 1 trials
   
    22:25:00: Balanced after 1 trials
   
    22:30:00: Balanced after 1 trials
   
    22:35:00: Balanced after 1 trials
    22:35:00: Tank 2 is filling at 25.05 ft
   
    22:40:00: Balanced after 1 trials
   
    22:45:00: Balanced after 1 trials
   
    22:50:00: Balanced after 1 trials
   
    22:55:00: Balanced after 1 trials
   
    23:00:00: Balanced after 3 trials
    23:00:00: Tank 1 is emptying at 17.32 ft
    23:00:00: Tank 2 is emptying at 25.07 ft
   
    23:05:00: Balanced after 2 trials
   
    23:10:00: Balanced after 2 trials
   
    23:15:00: Balanced after 2 trials
   
    23:20:00: Balanced after 2 trials
   
    23:25:00: Balanced after 2 trials
   
    23:30:00: Balanced after 2 trials
   
    23:35:00: Balanced after 2 trials
   
    23:40:00: Balanced after 2 trials
   
    23:45:00: Balanced after 2 trials
   
    23:50:00: Balanced after 2 trials
   
    23:55:00: Balanced after 2 trials
   
    24:00:00: Balanced after 4 trials
    24:00:00: Tank 1 is filling at 16.43 ft
   
   
  Node Results at 0:00:00 hrs:
  --------------------------------------------------------
                     Demand      Head  Pressure  Chemical
  Node                  gpm        ft       psi      mg/L
  --------------------------------------------------------
  10                   0.00    146.09     -0.40      0.00
  15                 766.62    111.45     34.43      0.00
  20                   0.00    158.00     12.57      0.00
  35                1513.53    145.85     57.78      0.00
  40                   0.00    145.00      5.68      0.00
  50                   0.00    140.00     10.18      0.00
  60                   0.00    209.01     90.57      0.00
  601                  0.00    302.46    131.06      0.00
  61                   0.00    302.46    131.06      0.00
  101                231.74    146.09     45.10      0.00
  103                162.50    146.05     44.65      0.00
  105                165.15    147.33     51.49      0.00
  107                 66.66    147.31     54.30      0.00
  109                282.31    146.05     54.49      0.00
  111                173.17    146.49     59.14      0.00
  113                 24.41    146.49     62.61      0.00
  115                 63.56    147.34     57.78      0.00
  117                143.61    150.40     59.28      0.00
  119                214.88    157.60     67.42      0.00
  120                  0.00    155.28     67.28      0.00
  121                 50.79    161.04     70.65      0.00
  123                  0.00    165.50     66.94      0.00
  125                 55.63    160.45     64.76      0.00
  127                 21.55    158.73     44.51      0.00
  129                  0.00    158.71     46.67      0.00
  131                 52.16    158.70     66.16      0.00
  139                  7.19    151.19     52.08      0.00
  141                 12.02    145.79     61.44      0.00
  143                  7.56    129.87     58.22      0.00
  145                 33.71    147.70     63.56      0.00
  147                 10.43    149.06     56.57      0.00
  149                 33.03    149.64     57.90      0.00
  151                176.27    155.03     52.66      0.00
  153                 53.89    155.14     38.54      0.00
  157                 63.18    155.18     61.56      0.00
  159                 50.41    151.83     63.19      0.00
  161                 19.28    149.56     63.07      0.00
  163                 11.49    149.11     62.44      0.00
  164                  0.00    149.11     62.44      0.00
  166                  3.17    149.11     65.47      0.00
  167                 17.76    147.23     65.96      0.00
  169                  0.00    147.23     65.96      0.00
  171                 47.99    146.14     65.05      0.00
  173                  0.00    146.11     65.04      0.00
  177                 70.97    145.84     59.72      0.00
  179                  0.00    145.82     59.72      0.00
  181                  0.00    145.86     59.73      0.00
  183                  0.00    145.83     58.42      0.00
  184                  0.00    144.54     55.70      0.00
  185                 31.29    145.19     55.98      0.00
  187                  0.00    146.00     57.85      0.00
  189                131.66    146.29     61.66      0.00
  191                 99.92    146.36     52.59      0.00
  193                 87.00    146.45     55.66      0.00
  195                  0.00    146.52     56.77      0.00
  197                 20.79    146.39     53.46      0.00
  199                145.57    140.49     61.74      0.00
  201                 54.42    139.68     60.48      0.00
  203               4765.66    139.50     59.58      0.00
  204                  0.00    145.72     54.04      0.00
  205                 79.74    140.47     51.77      0.00
  206                  0.00    139.59     60.05      0.00
  207                 84.66    139.73     56.65      0.00
  208                  0.00    139.43     53.48      0.00
  209                  1.06    139.15     61.16      0.00
  211                 10.58    139.06     57.22      0.00
  213                 17.01    139.00     57.20      0.00
  215                112.47    138.84     57.13      0.00
  217                 29.55    138.82     57.55      0.00
  219                 50.41    138.81     58.41      0.00
  225                 27.82    138.82     56.68      0.00
  229                 78.30    138.94     55.65      0.00
  231                 20.11    138.94     58.03      0.00
  237                 19.04    139.04     54.18      0.00
  239                 54.42    139.04     54.61      0.00
  241                  0.00    139.04     54.61      0.00
  243                  5.29    139.04     54.18      0.00
  247                 85.86    139.05     52.45      0.00
  249                  0.00    139.05     52.45      0.00
  251                 29.48    139.06     47.26      0.00
  253                 66.51    139.21     44.72      0.00
  255                 49.28    139.26     48.64      0.00
  257                  0.00    152.29     58.62      0.00
  259                  0.00    151.87     54.97      0.00
  261                  0.00    150.36     65.15      0.00
  263                  0.00    150.20     65.08      0.00
  265                  0.00    147.83     64.06      0.00
  267                  0.00    146.45     54.36      0.00
  269                  0.00    146.64     63.54      0.00
  271                  0.00    145.93     60.63      0.00
  273                  0.00    140.47     57.40      0.00
  275                  0.00    139.71     56.20      0.00
  River           -13156.80    220.00      0.00      0.00  Reservoir
  Lake                 0.00    167.00      0.00      0.00  Reservoir
  1                  496.09    145.00      5.68      0.00  Tank
  2                 -332.57    140.00     10.18      0.00  Tank
  3                 2228.78    158.00     12.57      0.00  Tank
   
   
  Link Results at 0:00:00 hrs:
  ----------------------------------------------
                       Flow  Velocity  Headloss
  Link                  gpm       fps   /1000ft
  ----------------------------------------------
  20               -2228.78      0.09      0.00
  40                -496.09      0.02      0.00
  50                 332.57      0.01      0.00
  60               13156.80      9.33      8.93
  101                  0.00      0.00      0.00
  103                179.06      0.29      0.03
  105               -410.80      1.17      0.49
  107                 46.65      0.13      0.01
  109                 16.55      0.03      0.00
  111               -265.75      0.75      0.22
  112                512.49      1.45      0.73
  113                -25.46      0.07      0.00
  114                131.07      0.84      0.42
  115                -20.02      0.13      0.01
  116                 81.20      0.23      0.02
  117                622.59      1.77      1.05
  119               -727.13      2.06      1.40
  120               1129.37      3.20      3.18
  121               1016.04      2.88      2.61
  122                363.96      2.32      2.81
  123               9799.14      4.45      1.72
  125              13156.80      5.97      2.97
  129               2942.92      2.09      0.64
  131               2661.14      1.89      0.53
  133              -2228.78      2.28      0.93
  135                410.81      0.29      0.02
  137                 52.16      0.08      0.00
  145                358.65      2.29      2.73
  147                351.47      2.24      2.63
  149               -774.18      4.94     11.37
  151               -766.62      4.89     11.17
  153                434.73      1.23      0.54
  155                468.44      1.33      0.62
  159               -478.87      1.36      0.65
  161               -511.90      3.27      5.29
  163               -172.26      0.49      0.10
  169                226.15      1.44      1.16
  171                515.90      1.46      0.74
  173               7938.99      3.60      1.17
  175               7875.80      3.57      1.15
  177               7825.39      3.55      1.13
  179               7563.63      3.43      1.07
  180                  3.17      0.01      0.00
  181                  3.17      0.01      0.00
  183               7355.26      3.34      1.01
  185                -17.76      0.11      0.01
  186                367.01      2.34      2.85
  187               6757.72      3.07      0.86
  189               4883.28      2.22      0.47
  191              -1826.45      1.30      0.26
  193              -1513.53      1.07      0.19
  195                463.00      1.31      0.61
  197                392.03      1.11      0.45
  199               -104.05      0.30      0.04
  201               -496.09      1.41      0.69
  202                571.39      3.65      6.48
  203                235.68      1.50      1.26
  204                571.39      1.62      0.90
  205                367.01      1.04      0.40
  207                339.73      0.96      0.34
  209                156.52      1.00      0.59
  211                579.78      1.64      0.92
  213                210.48      0.60      0.14
  215                198.22      0.56      0.13
  217               -232.17      0.66      0.17
  219               -242.49      0.69      0.18
  221                242.49      1.55      1.32
  223                 78.24      0.22      0.02
  225                 99.02      0.28      0.03
  229               4883.28      3.46      1.41
  231               4646.90      3.30      1.28
  233               4765.66      3.38      1.56
  235                 90.81      0.26      0.03
  237                466.26      1.32      0.62
  238                324.62      0.92      0.32
  239                -56.98      0.16      0.01
  240                324.62      0.92      0.32
  241                324.62      0.92      0.32
  243                323.56      0.52      0.08
  245                267.70      0.43      0.05
  247                220.25      0.35      0.04
  249                107.77      0.17      0.01
  251                 50.41      0.11      0.00
  257                 27.82      0.08      0.00
  261                 30.45      0.19      0.03
  263                 20.11      0.06      0.00
  269                 45.28      0.13      0.01
  271                 67.96      0.43      0.13
  273                -41.72      0.12      0.01
  275                -33.04      0.09      0.00
  277                  5.29      0.02      0.00
  281                -38.34      0.16      0.01
  283                -63.10      0.18      0.02
  285                 10.85      0.03      0.00
  287               -135.05      0.55      0.15
  289                332.57      1.36      0.80
  291                 66.51      0.27      0.04
  293                 81.73      0.52      0.18
  295                -52.26      0.15      0.01
  297                477.29      3.05      4.64
  299                229.32      1.46      1.19
  301                229.32      1.46      1.19
  303                247.97      1.58      1.38
  305                145.30      0.41      0.07
  307                393.27      1.12      0.45
  309                193.70      1.24      0.87
  311                  4.52      0.01      0.00
  313                429.70      1.22      0.53
  315              -1976.53      1.40      0.31
  317                116.21      0.74      0.34
  319                -25.40      0.07      0.00
  321               7548.96      3.43      1.06
  323               -173.19      0.49      0.10
  325                150.08      0.96      0.54
  329              13156.80      5.97      3.01
  330                  0.00      0.00      0.00
  333                 -0.00      0.00      0.00
  10                   0.00      0.00      0.00  Pump
  335              13156.80      0.00    -93.45  Pump
   
   
  Node Results at 0:05:00 hrs:
  --------------------------------------------------------
                     Demand      Head  Pressure  Chemical
  Node                  gpm        ft       psi      mg/L
  --------------------------------------------------------
  10                   0.00    146.13     -0.38      0.00
  15                 766.62    111.51     34.45      0.00
  20                   0.00    158.07     12.60      0.00
  35                1513.53    145.89     57.80      0.00
  40                   0.00    145.06      5.70      0.00
  50                   0.00    139.89     10.13      0.00
  60                   0.00    209.02     90.57      0.00
  601                  0.00    302.48    131.07      0.00
  61                   0.00    302.48    131.07      0.00
  101                231.74    146.13     45.12      0.00
  103                162.50    146.09     44.67      0.00
  105                165.15    147.37     51.51      0.00
  107                 66.66    147.36     54.32      0.00
  109                282.31    146.09     54.51      0.00
  111                173.17    146.53     59.16      0.00
  113                 24.41    146.53     62.63      0.00
  115                 63.56    147.38     57.79      0.00
  117                143.61    150.45     59.30      0.00
  119                214.88    157.65     67.44      0.00
  120                  0.00    155.33     67.31      0.00
  121                 50.79    161.10     70.67      0.00
  123                  0.00    165.55     66.97      0.00
  125                 55.63    160.51     64.78      0.00
  127                 21.55    158.80     44.54      0.00
  129                  0.00    158.78     46.70      0.00
  131                 52.16    158.76     66.19      0.00
  139                  7.19    151.26     52.11      0.00
  141                 12.02    145.85     61.46      0.00
  143                  7.56    129.93     58.25      0.00
  145                 33.71    147.75     63.59      0.00
  147                 10.43    149.12     56.60      0.00
  149                 33.03    149.69     57.93      0.00
  151                176.27    155.08     52.68      0.00
  153                 53.89    155.19     38.56      0.00
  157                 63.18    155.22     61.58      0.00
  159                 50.41    151.88     63.21      0.00
  161                 19.28    149.61     63.09      0.00
  163                 11.49    149.15     62.46      0.00
  164                  0.00    149.15     62.46      0.00
  166                  3.17    149.15     65.49      0.00
  167                 17.76    147.27     65.98      0.00
  169                  0.00    147.27     65.98      0.00
  171                 47.99    146.17     65.07      0.00
  173                  0.00    146.15     65.06      0.00
  177                 70.97    145.88     59.74      0.00
  179                  0.00    145.86     59.74      0.00
  181                  0.00    145.89     59.75      0.00
  183                  0.00    145.87     58.44      0.00
  184                  0.00    144.58     55.71      0.00
  185                 31.29    145.23     55.99      0.00
  187                  0.00    146.04     57.86      0.00
  189                131.66    146.34     61.67      0.00
  191                 99.92    146.40     52.60      0.00
  193                 87.00    146.49     55.68      0.00
  195                  0.00    146.56     56.79      0.00
  197                 20.79    146.43     53.48      0.00
  199                145.57    140.51     61.75      0.00
  201                 54.42    139.70     60.49      0.00
  203               4765.66    139.51     59.58      0.00
  204                  0.00    145.75     54.06      0.00
  205                 79.74    140.49     51.77      0.00
  206                  0.00    139.59     60.05      0.00
  207                 84.66    139.74     56.65      0.00
  208                  0.00    139.42     53.48      0.00
  209                  1.06    139.12     61.15      0.00
  211                 10.58    139.02     57.20      0.00
  213                 17.01    138.96     57.18      0.00
  215                112.47    138.80     57.11      0.00
  217                 29.55    138.79     57.54      0.00
  219                 50.41    138.78     58.40      0.00
  225                 27.82    138.78     56.67      0.00
  229                 78.30    138.90     55.63      0.00
  231                 20.11    138.89     58.02      0.00
  237                 19.04    138.99     54.16      0.00
  239                 54.42    139.00     54.59      0.00
  241                  0.00    139.00     54.59      0.00
  243                  5.29    139.00     54.16      0.00
  247                 85.86    139.00     52.43      0.00
  249                  0.00    139.00     52.43      0.00
  251                 29.48    139.01     47.24      0.00
  253                 66.51    139.15     44.69      0.00
  255                 49.28    139.19     48.61      0.00
  257                  0.00    152.34     58.64      0.00
  259                  0.00    151.92     54.99      0.00
  261                  0.00    150.40     65.17      0.00
  263                  0.00    150.24     65.10      0.00
  265                  0.00    147.87     64.07      0.00
  267                  0.00    146.49     54.38      0.00
  269                  0.00    146.68     63.56      0.00
  271                  0.00    145.97     60.65      0.00
  273                  0.00    140.49     57.41      0.00
  275                  0.00    139.72     56.21      0.00
  River           -13154.99    220.00      0.00      0.00  Reservoir
  Lake                 0.00    167.00      0.00      0.00  Reservoir
  1                  490.24    145.06      5.70      0.00  Tank
  2                 -321.28    139.89     10.13      0.00  Tank
  3                 2221.52    158.07     12.60      0.00  Tank
   
   
  Link Results at 0:05:00 hrs:
  ----------------------------------------------
                       Flow  Velocity  Headloss
  Link                  gpm       fps   /1000ft
  ----------------------------------------------
  20               -2221.52      0.09      0.00
  40                -490.24      0.02      0.00
  50                 321.28      0.01      0.00
  60               13154.99      9.33      8.92
  101                  0.00      0.00      0.00
  103                179.23      0.29      0.03
  105               -410.97      1.17      0.49
  107                 46.77      0.13      0.01
  109                 16.73      0.03      0.00
  111               -265.58      0.75      0.22
  112                512.88      1.45      0.74
  113                -25.14      0.07      0.00
  114                131.18      0.84      0.42
  115                -19.90      0.13      0.01
  116                 81.63      0.23      0.02
  117                622.89      1.77      1.05
  119               -727.52      2.06      1.41
  120               1129.87      3.21      3.18
  121               1016.50      2.88      2.61
  122                364.14      2.32      2.81
  123               9804.19      4.45      1.72
  125              13154.99      5.97      2.97
  129               2935.87      2.08      0.64
  131               2654.00      1.88      0.53
  133              -2221.52      2.27      0.92
  135                410.93      0.29      0.02
  137                 52.16      0.08      0.00
  145                358.78      2.29      2.74
  147                351.59      2.24      2.64
  149               -774.18      4.94     11.37
  151               -766.62      4.89     11.17
  153                434.61      1.23      0.54
  155                468.32      1.33      0.62
  159               -478.75      1.36      0.65
  161               -511.78      3.27      5.28
  163               -172.35      0.49      0.10
  169                226.24      1.44      1.16
  171                515.69      1.46      0.74
  173               7943.75      3.61      1.17
  175               7880.57      3.58      1.15
  177               7830.16      3.55      1.14
  179               7568.32      3.44      1.07
  180                  3.17      0.01      0.00
  181                  3.17      0.01      0.00
  183               7359.97      3.34      1.01
  185                -17.76      0.11      0.01
  186                367.64      2.35      2.86
  187               6762.52      3.07      0.87
  189               4893.21      2.22      0.48
  191              -1821.31      1.29      0.26
  193              -1513.53      1.07      0.19
  195                457.93      1.30      0.60
  197                386.96      1.10      0.44
  199               -103.28      0.29      0.04
  201               -490.24      1.39      0.68
  202                572.75      3.66      6.51
  203                236.39      1.51      1.26
  204                572.75      1.62      0.90
  205                367.64      1.04      0.40
  207                339.68      0.96      0.34
  209                156.77      1.00      0.59
  211                579.69      1.64      0.92
  213                210.88      0.60      0.14
  215                198.57      0.56      0.13
  217               -232.31      0.66      0.17
  219               -242.57      0.69      0.18
  221                242.57      1.55      1.33
  223                 78.48      0.22      0.02
  225                 99.27      0.28      0.04
  229               4893.21      3.47      1.41
  231               4654.92      3.30      1.29
  233               4765.66      3.38      1.56
  235                 92.72      0.26      0.03
  237                469.17      1.33      0.62
  238                335.91      0.95      0.34
  239                -48.60      0.14      0.01
  240                335.91      0.95      0.34
  241                335.91      0.95      0.34
  243                334.85      0.53      0.08
  245                268.83      0.43      0.05
  247                220.25      0.35      0.04
  249                107.77      0.17      0.01
  251                 50.41      0.11      0.00
  257                 27.82      0.08      0.00
  261                 31.57      0.20      0.03
  263                 20.11      0.06      0.00
  269                 55.44      0.16      0.01
  271                 66.83      0.43      0.12
  273                -30.43      0.09      0.00
  275                -28.52      0.08      0.00
  277                  5.29      0.02      0.00
  281                -33.82      0.14      0.01
  283                -56.33      0.16      0.01
  285                  8.22      0.02      0.00
  287               -127.90      0.52      0.14
  289                321.28      1.31      0.75
  291                 66.51      0.27      0.04
  293                 77.59      0.50      0.16
  295                -48.11      0.14      0.01
  297                477.51      3.05      4.65
  299                229.43      1.46      1.20
  301                229.43      1.46      1.20
  303                248.08      1.58      1.38
  305                145.38      0.41      0.07
  307                393.46      1.12      0.45
  309                193.68      1.24      0.87
  311                  4.88      0.01      0.00
  313                429.54      1.22      0.53
  315              -1971.46      1.40      0.30
  317                116.56      0.74      0.34
  319                -23.84      0.07      0.00
  321               7553.65      3.43      1.06
  323               -165.16      0.47      0.09
  325                150.15      0.96      0.55
  329              13154.99      5.97      3.01
  330                  0.00      0.00      0.00
  333                 -0.00      0.00      0.00
  10                   0.00      0.00      0.00  Pump
  335              13154.99      0.00    -93.47  Pump
   
   
  Node Results at 0:10:00 hrs:
  --------------------------------------------------------
                     Demand      Head  Pressure  Chemical
  Node                  gpm        ft       psi      mg/L
  --------------------------------------------------------
  10                   0.00    146.17     -0.36      0.00
  15                 766.62    111.57     34.48      0.00
  20                   0.00    158.14     12.63      0.00
  35                1513.53    145.93     57.81      0.00
  40                   0.00    145.12      5.73      0.00
  50                   0.00    139.78     10.09      0.00
  60                   0.00    209.02     90.57      0.00
  601                  0.00    302.50    131.07      0.00
  61                   0.00    302.50    131.07      0.00
  101                231.74    146.17     45.14      0.00
  103                162.50    146.14     44.69      0.00
  105                165.15    147.41     51.52      0.00
  107                 66.66    147.40     54.34      0.00
  109                282.31    146.13     54.52      0.00
  111                173.17    146.57     59.18      0.00
  113                 24.41    146.57     62.64      0.00
  115                 63.56    147.42     57.81      0.00
  117                143.61    150.49     59.32      0.00
  119                214.88    157.70     67.47      0.00
  120                  0.00    155.38     67.33      0.00
  121                 50.79    161.15     70.69      0.00
  123                  0.00    165.61     66.99      0.00
  125                 55.63    160.56     64.81      0.00
  127                 21.55    158.86     44.57      0.00
  129                  0.00    158.85     46.73      0.00
  131                 52.16    158.83     66.22      0.00
  139                  7.19    151.32     52.13      0.00
  141                 12.02    145.91     61.49      0.00
  143                  7.56    129.99     58.27      0.00
  145                 33.71    147.81     63.61      0.00
  147                 10.43    149.18     56.62      0.00
  149                 33.03    149.75     57.95      0.00
  151                176.27    155.13     52.70      0.00
  153                 53.89    155.25     38.58      0.00
  157                 63.18    155.27     61.60      0.00
  159                 50.41    151.92     63.23      0.00
  161                 19.28    149.65     63.11      0.00
  163                 11.49    149.19     62.48      0.00
  164                  0.00    149.19     62.48      0.00
  166                  3.17    149.19     65.51      0.00
  167                 17.76    147.31     66.00      0.00
  169                  0.00    147.31     66.00      0.00
  171                 47.99    146.21     65.09      0.00
  173                  0.00    146.19     65.08      0.00
  177                 70.97    145.92     59.76      0.00
  179                  0.00    145.90     59.75      0.00
  181                  0.00    145.93     59.77      0.00
  183                  0.00    145.91     58.46      0.00
  184                  0.00    144.61     55.73      0.00
  185                 31.29    145.26     56.01      0.00
  187                  0.00    146.08     57.88      0.00
  189                131.66    146.38     61.69      0.00
  191                 99.92    146.44     52.62      0.00
  193                 87.00    146.53     55.69      0.00
  195                  0.00    146.60     56.81      0.00
  197                 20.79    146.47     53.50      0.00
  199                145.57    140.53     61.76      0.00
  201                 54.42    139.71     60.49      0.00
  203               4765.66    139.53     59.59      0.00
  204                  0.00    145.79     54.07      0.00
  205                 79.74    140.50     51.78      0.00
  206                  0.00    139.59     60.05      0.00
  207                 84.66    139.75     56.65      0.00
  208                  0.00    139.40     53.47      0.00
  209                  1.06    139.09     61.13      0.00
  211                 10.58    138.98     57.19      0.00
  213                 17.01    138.93     57.16      0.00
  215                112.47    138.77     57.09      0.00
  217                 29.55    138.75     57.52      0.00
  219                 50.41    138.74     58.38      0.00
  225                 27.82    138.74     56.65      0.00
  229                 78.30    138.86     55.62      0.00
  231                 20.11    138.85     58.00      0.00
  237                 19.04    138.95     54.14      0.00
  239                 54.42    138.95     54.57      0.00
  241                  0.00    138.95     54.57      0.00
  243                  5.29    138.95     54.14      0.00
  247                 85.86    138.95     52.41      0.00
  249                  0.00    138.95     52.41      0.00
  251                 29.48    138.97     47.21      0.00
  253                 66.51    139.08     44.66      0.00
  255                 49.28    139.13     48.58      0.00
  257                  0.00    152.38     58.66      0.00
  259                  0.00    151.96     55.01      0.00
  261                  0.00    150.45     65.19      0.00
  263                  0.00    150.29     65.12      0.00
  265                  0.00    147.91     64.09      0.00
  267                  0.00    146.53     54.39      0.00
  269                  0.00    146.72     63.57      0.00
  271                  0.00    146.01     60.67      0.00
  273                  0.00    140.50     57.41      0.00
  275                  0.00    139.74     56.22      0.00
  River           -13153.17    220.00      0.00      0.00  Reservoir
  Lake                 0.00    167.00      0.00      0.00  Reservoir
  1                  484.58    145.12      5.73      0.00  Tank
  2                 -310.21    139.78     10.09      0.00  Tank
  3                 2214.30    158.14     12.63      0.00  Tank
   
   
  Link Results at 0:10:00 hrs:
  ----------------------------------------------
                       Flow  Velocity  Headloss
  Link                  gpm       fps   /1000ft
  ----------------------------------------------
  20               -2214.30      0.09      0.00
  40                -484.58      0.02      0.00
  50                 310.21      0.01      0.00
  60               13153.17      9.33      8.92
  101                  0.00      0.00      0.00
  103                179.40      0.29      0.03
  105               -411.14      1.17      0.49
  107                 46.89      0.13      0.01
  109                 16.90      0.03      0.00
  111               -265.41      0.75      0.22
  112                513.28      1.46      0.74
  113                -24.82      0.07      0.00
  114                131.29      0.84      0.43
  115                -19.78      0.13      0.01
  116                 82.06      0.23      0.02
  117                623.18      1.77      1.06
  119               -727.90      2.06      1.41
  120               1130.37      3.21      3.18
  121               1016.96      2.88      2.61
  122                364.31      2.33      2.82
  123               9809.21      4.45      1.72
  125              13153.17      5.97      2.97
  129               2928.86      2.08      0.63
  131               2646.90      1.88      0.53
  133              -2214.30      2.26      0.92
  135                411.05      0.29      0.02
  137                 52.16      0.08      0.00
  145                358.90      2.29      2.74
  147                351.71      2.24      2.64
  149               -774.18      4.94     11.37
  151               -766.62      4.89     11.17
  153                434.49      1.23      0.54
  155                468.20      1.33      0.62
  159               -478.63      1.36      0.65
  161               -511.65      3.27      5.28
  163               -172.44      0.49      0.10
  169                226.33      1.44      1.17
  171                515.48      1.46      0.74
  173               7948.48      3.61      1.17
  175               7885.30      3.58      1.15
  177               7834.89      3.56      1.14
  179               7572.97      3.44      1.07
  180                  3.17      0.01      0.00
  181                  3.17      0.01      0.00
  183               7364.64      3.34      1.01
  185                -17.76      0.11      0.01
  186                368.27      2.35      2.87
  187               6767.27      3.07      0.87
  189               4902.96      2.23      0.48
  191              -1816.32      1.29      0.26
  193              -1513.53      1.07      0.19
  195                453.01      1.29      0.58
  197                382.04      1.08      0.43
  199               -102.54      0.29      0.04
  201               -484.58      1.37      0.66
  202                574.07      3.66      6.54
  203                237.09      1.51      1.27
  204                574.07      1.63      0.91
  205                368.27      1.04      0.40
  207                339.63      0.96      0.34
  209                157.00      1.00      0.59
  211                579.60      1.64      0.92
  213                211.27      0.60      0.14
  215                198.91      0.56      0.13
  217               -232.46      0.66      0.17
  219               -242.64      0.69      0.18
  221                242.64      1.55      1.33
  223                 78.73      0.22      0.02
  225                 99.52      0.28      0.04
  229               4902.96      3.48      1.42
  231               4662.95      3.31      1.29
  233               4765.66      3.38      1.56
  235                 94.44      0.27      0.03
  237                471.87      1.34      0.63
  238                346.98      0.98      0.36
  239                -40.23      0.11      0.01
  240                346.98      0.98      0.36
  241                346.98      0.98      0.36
  243                345.91      0.55      0.09
  245                270.08      0.43      0.06
  247                220.25      0.35      0.04
  249                107.77      0.17      0.01
  251                 50.41      0.11      0.00
  257                 27.82      0.08      0.00
  261                 32.83      0.21      0.03
  263                 20.11      0.06      0.00
  269                 65.26      0.19      0.02
  271                 65.58      0.42      0.12
  273                -19.37      0.05      0.00
  275                -24.38      0.07      0.00
  277                  5.29      0.02      0.00
  281                -29.68      0.12      0.01
  283                -49.41      0.14      0.01
  285                  5.37      0.02      0.00
  287               -120.91      0.49      0.12
  289                310.21      1.27      0.70
  291                 66.51      0.27      0.04
  293                 73.52      0.47      0.15
  295                -44.04      0.12      0.01
  297                477.73      3.05      4.65
  299                229.53      1.47      1.20
  301                229.53      1.47      1.20
  303                248.20      1.58      1.38
  305                145.45      0.41      0.07
  307                393.65      1.12      0.45
  309                193.67      1.24      0.87
  311                  5.24      0.01      0.00
  313                429.38      1.22      0.53
  315              -1966.54      1.39      0.30
  317                116.90      0.75      0.34
  319                -22.46      0.06      0.00
  321               7558.31      3.43      1.06
  323               -157.14      0.45      0.08
  325                150.22      0.96      0.55
  329              13153.17      5.97      3.01
  330                  0.00      0.00      0.00
  333                 -0.00      0.00      0.00
  10                   0.00      0.00      0.00  Pump
  335              13153.17      0.00    -93.48  Pump
   
   
  Node Results at 0:15:00 hrs:
  --------------------------------------------------------
                     Demand      Head  Pressure  Chemical
  Node                  gpm        ft       psi      mg/L
  --------------------------------------------------------
  10                   0.00    146.21     -0.34      0.00
  15                 766.62    111.62     34.50      0.00
  20                   0.00    158.21     12.66      0.00
  35                1513.53    145.97     57.83      0.00
  40                   0.00    145.17      5.75      0.00
  50                   0.00    139.67     10.04      0.00
  60                   0.00    209.02     90.57      0.00
  601                  0.00    302.52    131.08      0.00
  61                   0.00    302.52    131.08      0.00
  101                231.74    146.21     45.16      0.00
  103                162.50    146.18     44.71      0.00
  105                165.15    147.45     51.54      0.00
  107                 66.66    147.44     54.35      0.00
  109                282.31    146.18     54.54      0.00
  111                173.17    146.61     59.19      0.00
  113                 24.41    146.61     62.66      0.00
  115                 63.56    147.47     57.83      0.00
  117                143.61    150.54     59.34      0.00
  119                214.88    157.75     67.49      0.00
  120                  0.00    155.43     67.35      0.00
  121                 50.79    161.21     70.72      0.00
  123                  0.00    165.66     67.01      0.00
  125                 55.63    160.62     64.83      0.00
  127                 21.55    158.93     44.60      0.00
  129                  0.00    158.91     46.76      0.00
  131                 52.16    158.89     66.25      0.00
  139                  7.19    151.38     52.16      0.00
  141                 12.02    145.97     61.51      0.00
  143                  7.56    130.05     58.30      0.00
  145                 33.71    147.87     63.64      0.00
  147                 10.43    149.23     56.65      0.00
  149                 33.03    149.80     57.98      0.00
  151                176.27    155.19     52.73      0.00
  153                 53.89    155.30     38.61      0.00
  157                 63.18    155.32     61.62      0.00
  159                 50.41    151.97     63.25      0.00
  161                 19.28    149.69     63.13      0.00
  163                 11.49    149.23     62.50      0.00
  164                  0.00    149.23     62.50      0.00
  166                  3.17    149.23     65.53      0.00
  167                 17.76    147.35     66.01      0.00
  169                  0.00    147.35     66.01      0.00
  171                 47.99    146.25     65.10      0.00
  173                  0.00    146.23     65.09      0.00
  177                 70.97    145.96     59.78      0.00
  179                  0.00    145.95     59.77      0.00
  181                  0.00    145.97     59.78      0.00
  183                  0.00    145.95     58.48      0.00
  184                  0.00    144.65     55.74      0.00
  185                 31.29    145.30     56.03      0.00
  187                  0.00    146.12     57.90      0.00
  189                131.66    146.42     61.71      0.00
  191                 99.92    146.48     52.64      0.00
  193                 87.00    146.57     55.71      0.00
  195                  0.00    146.64     56.82      0.00
  197                 20.79    146.51     53.52      0.00
  199                145.57    140.54     61.76      0.00
  201                 54.42    139.73     60.50      0.00
  203               4765.66    139.54     59.60      0.00
  204                  0.00    145.83     54.09      0.00
  205                 79.74    140.52     51.79      0.00
  206                  0.00    139.59     60.05      0.00
  207                 84.66    139.76     56.66      0.00
  208                  0.00    139.39     53.47      0.00
  209                  1.06    139.06     61.12      0.00
  211                 10.58    138.95     57.17      0.00
  213                 17.01    138.89     57.15      0.00
  215                112.47    138.73     57.08      0.00
  217                 29.55    138.71     57.50      0.00
  219                 50.41    138.70     58.37      0.00
  225                 27.82    138.71     56.64      0.00
  229                 78.30    138.82     55.60      0.00
  231                 20.11    138.81     57.98      0.00
  237                 19.04    138.90     54.12      0.00
  239                 54.42    138.90     54.55      0.00
  241                  0.00    138.90     54.55      0.00
  243                  5.29    138.90     54.12      0.00
  247                 85.86    138.91     52.39      0.00
  249                  0.00    138.91     52.39      0.00
  251                 29.48    138.92     47.19      0.00
  253                 66.51    139.02     44.64      0.00
  255                 49.28    139.06     48.56      0.00
  257                  0.00    152.43     58.68      0.00
  259                  0.00    152.01     55.03      0.00
  261                  0.00    150.49     65.21      0.00
  263                  0.00    150.33     65.14      0.00
  265                  0.00    147.95     64.11      0.00
  267                  0.00    146.57     54.41      0.00
  269                  0.00    146.76     63.59      0.00
  271                  0.00    146.05     60.69      0.00
  273                  0.00    140.52     57.42      0.00
  275                  0.00    139.75     56.22      0.00
  River           -13151.37    220.00      0.00      0.00  Reservoir
  Lake                 0.00    167.00      0.00      0.00  Reservoir
  1                  479.08    145.17      5.75      0.00  Tank
  2                 -299.35    139.67     10.04      0.00  Tank
  3                 2207.14    158.21     12.66      0.00  Tank
   
   
  Link Results at 0:15:00 hrs:
  ----------------------------------------------
                       Flow  Velocity  Headloss
  Link                  gpm       fps   /1000ft
  ----------------------------------------------
  20               -2207.14      0.09      0.00
  40                -479.08      0.02      0.00
  50                 299.35      0.01      0.00
  60               13151.37      9.33      8.92
  101                  0.00      0.00      0.00
  103                179.57      0.29      0.03
  105               -411.31      1.17      0.49
  107                 47.00      0.13      0.01
  109                 17.07      0.03      0.00
  111               -265.24      0.75      0.22
  112                513.67      1.46      0.74
  113                -24.50      0.07      0.00
  114                131.40      0.84      0.43
  115                -19.66      0.13      0.01
  116                 82.48      0.23      0.02
  117                623.46      1.77      1.06
  119               -728.28      2.07      1.41
  120               1130.87      3.21      3.18
  121               1017.41      2.89      2.62
  122                364.49      2.33      2.82
  123               9814.18      4.45      1.73
  125              13151.36      5.97      2.97
  129               2921.90      2.07      0.63
  131               2639.85      1.87      0.52
  133              -2207.14      2.25      0.91
  135                411.17      0.29      0.02
  137                 52.16      0.08      0.00
  145                359.02      2.29      2.74
  147                351.83      2.25      2.64
  149               -774.18      4.94     11.37
  151               -766.62      4.89     11.17
  153                434.37      1.23      0.54
  155                468.08      1.33      0.62
  159               -478.51      1.36      0.65
  161               -511.53      3.27      5.28
  163               -172.53      0.49      0.10
  169                226.42      1.45      1.17
  171                515.27      1.46      0.74
  173               7953.17      3.61      1.17
  175               7889.98      3.58      1.15
  177               7839.57      3.56      1.14
  179               7577.58      3.44      1.07
  180                  3.17      0.01      0.00
  181                  3.17      0.01      0.00
  183               7369.26      3.34      1.02
  185                -17.76      0.11      0.01
  186                368.89      2.35      2.88
  187               6771.98      3.07      0.87
  189               4912.53      2.23      0.48
  191              -1811.46      1.28      0.26
  193              -1513.53      1.07      0.19
  195                448.21      1.27      0.57
  197                377.24      1.07      0.42
  199               -101.83      0.29      0.04
  201               -479.08      1.36      0.65
  202                575.36      3.67      6.56
  203                237.76      1.52      1.28
  204                575.36      1.63      0.91
  205                368.89      1.05      0.40
  207                339.60      0.96      0.34
  209                157.23      1.00      0.59
  211                579.52      1.64      0.92
  213                211.66      0.60      0.14
  215                199.26      0.57      0.13
  217               -232.60      0.66      0.17
  219               -242.71      0.69      0.18
  221                242.71      1.55      1.33
  223                 78.98      0.22      0.02
  225                 99.76      0.28      0.04
  229               4912.53      3.48      1.42
  231               4670.99      3.31      1.29
  233               4765.66      3.38      1.56
  235                 95.97      0.27      0.03
  237                474.34      1.35      0.64
  238                357.84      1.02      0.38
  239                -31.85      0.09      0.00
  240                357.84      1.02      0.38
  241                357.84      1.02      0.38
  243                356.78      0.57      0.09
  245                271.44      0.43      0.06
  247                220.25      0.35      0.04
  249                107.77      0.17      0.01
  251                 50.41      0.11      0.00
  257                 27.82      0.08      0.00
  261                 34.18      0.22      0.04
  263                 20.11      0.06      0.00
  269                 74.76      0.21      0.02
  271                 64.22      0.41      0.11
  273                 -8.50      0.02      0.00
  275                -20.31      0.06      0.00
  277                  5.29      0.02      0.00
  281                -25.61      0.10      0.01
  283                -42.61      0.12      0.01
  285                  2.57      0.01      0.00
  287               -114.04      0.47      0.11
  289                299.35      1.22      0.66
  291                 66.51      0.27      0.04
  293                 69.52      0.44      0.13
  295                -40.04      0.11      0.01
  297                477.94      3.05      4.65
  299                229.63      1.47      1.20
  301                229.63      1.47      1.20
  303                248.31      1.58      1.38
  305                145.52      0.41      0.07
  307                393.83      1.12      0.45
  309                193.66      1.24      0.87
  311                  5.60      0.02      0.00
  313                429.24      1.22      0.53
  315              -1961.74      1.39      0.30
  317                117.25      0.75      0.34
  319                -21.28      0.06      0.00
  321               7562.92      3.43      1.07
  323               -149.09      0.42      0.07
  325                150.28      0.96      0.55
  329              13151.36      5.97      3.01
  330                  0.00      0.00      0.00
  333                 -0.00      0.00      0.00
  10                   0.00      0.00      0.00  Pump
  335              13151.37      0.00    -93.50  Pump
   
   
  Node Results at 0:20:00 hrs:
  --------------------------------------------------------
                     Demand      Head  Pressure  Chemical
  Node                  gpm        ft       psi      mg/L
  --------------------------------------------------------
  10                   0.00    146.25     -0.32      0.00
  15                 766.62    111.68     34.53      0.00
  20                   0.00    158.28     12.69      0.00
  35                1513.53    146.01     57.85      0.00
  40                   0.00    145.23      5.78      0.00
  50                   0.00    139.57     10.00      0.00
  60                   0.00    209.02     90.57      0.00
  601                  0.00    302.54    131.09      0.00
  61                   0.00    302.54    131.09      0.00
  101                231.74    146.25     45.17      0.00
  103                162.50    146.22     44.72      0.00
  105                165.15    147.50     51.56      0.00
  107                 66.66    147.48     54.37      0.00
  109                282.31    146.22     54.56      0.00
  111                173.17    146.65     59.21      0.00
  113                 24.41    146.66     62.68      0.00
  115                 63.56    147.51     57.85      0.00
  117                143.61    150.58     59.35      0.00
  119                214.88    157.81     67.51      0.00
  120                  0.00    155.48     67.37      0.00
  121                 50.79    161.26     70.74      0.00
  123                  0.00    165.71     67.04      0.00
  125                 55.63    160.68     64.86      0.00
  127                 21.55    158.99     44.63      0.00
  129                  0.00    158.98     46.79      0.00
  131                 52.16    158.96     66.28      0.00
  139                  7.19    151.44     52.19      0.00
  141                 12.02    146.02     61.54      0.00
  143                  7.56    130.11     58.32      0.00
  145                 33.71    147.92     63.66      0.00
  147                 10.43    149.29     56.67      0.00
  149                 33.03    149.86     58.00      0.00
  151                176.27    155.24     52.75      0.00
  153                 53.89    155.35     38.63      0.00
  157                 63.18    155.37     61.65      0.00
  159                 50.41    152.01     63.27      0.00
  161                 19.28    149.73     63.15      0.00
  163                 11.49    149.27     62.51      0.00
  164                  0.00    149.27     62.51      0.00
  166                  3.17    149.27     65.55      0.00
  167                 17.76    147.39     66.03      0.00
  169                  0.00    147.39     66.03      0.00
  171                 47.99    146.29     65.12      0.00
  173                  0.00    146.27     65.11      0.00
  177                 70.97    146.00     59.79      0.00
  179                  0.00    145.99     59.79      0.00
  181                  0.00    146.01     59.80      0.00
  183                  0.00    145.99     58.49      0.00
  184                  0.00    144.68     55.76      0.00
  185                 31.29    145.34     56.04      0.00
  187                  0.00    146.16     57.91      0.00
  189                131.66    146.46     61.73      0.00
  191                 99.92    146.53     52.66      0.00
  193                 87.00    146.61     55.73      0.00
  195                  0.00    146.68     56.84      0.00
  197                 20.79    146.55     53.54      0.00
  199                145.57    140.56     61.77      0.00
  201                 54.42    139.74     60.51      0.00
  203               4765.66    139.56     59.60      0.00
  204                  0.00    145.87     54.11      0.00
  205                 79.74    140.54     51.80      0.00
  206                  0.00    139.59     60.05      0.00
  207                 84.66    139.77     56.66      0.00
  208                  0.00    139.38     53.46      0.00
  209                  1.06    139.03     61.11      0.00
  211                 10.58    138.91     57.16      0.00
  213                 17.01    138.86     57.13      0.00
  215                112.47    138.70     57.06      0.00
  217                 29.55    138.68     57.49      0.00
  219                 50.41    138.67     58.35      0.00
  225                 27.82    138.67     56.62      0.00
  229                 78.30    138.77     55.58      0.00
  231                 20.11    138.77     57.96      0.00
  237                 19.04    138.86     54.10      0.00
  239                 54.42    138.86     54.53      0.00
  241                  0.00    138.86     54.54      0.00
  243                  5.29    138.86     54.10      0.00
  247                 85.86    138.86     52.37      0.00
  249                  0.00    138.86     52.37      0.00
  251                 29.48    138.87     47.17      0.00
  253                 66.51    138.95     44.61      0.00
  255                 49.28    139.00     48.53      0.00
  257                  0.00    152.48     58.70      0.00
  259                  0.00    152.06     55.05      0.00
  261                  0.00    150.54     65.23      0.00
  263                  0.00    150.38     65.16      0.00
  265                  0.00    147.99     64.13      0.00
  267                  0.00    146.61     54.43      0.00
  269                  0.00    146.80     63.61      0.00
  271                  0.00    146.09     60.70      0.00
  273                  0.00    140.54     57.43      0.00
  275                  0.00    139.76     56.23      0.00
  River           -13149.56    220.00      0.00      0.00  Reservoir
  Lake                 0.00    167.00      0.00      0.00  Reservoir
  1                  473.72    145.23      5.78      0.00  Tank
  2                 -288.68    139.57     10.00      0.00  Tank
  3                 2200.01    158.28     12.69      0.00  Tank
   
   
  Link Results at 0:20:00 hrs:
  ----------------------------------------------
                       Flow  Velocity  Headloss
  Link                  gpm       fps   /1000ft
  ----------------------------------------------
  20               -2200.01      0.09      0.00
  40                -473.72      0.02      0.00
  50                 288.68      0.01      0.00
  60               13149.56      9.33      8.92
  101                  0.00      0.00      0.00
  103                179.74      0.29      0.03
  105               -411.48      1.17      0.49
  107                 47.12      0.13      0.01
  109                 17.23      0.03      0.00
  111               -265.07      0.75      0.22
  112                514.06      1.46      0.74
  113                -24.19      0.07      0.00
  114                131.51      0.84      0.43
  115                -19.54      0.12      0.01
  116                 82.90      0.24      0.03
  117                623.75      1.77      1.06
  119               -728.66      2.07      1.41
  120               1131.36      3.21      3.19
  121               1017.87      2.89      2.62
  122                364.66      2.33      2.82
  123               9819.12      4.46      1.73
  125              13149.56      5.97      2.97
  129               2914.98      2.07      0.63
  131               2632.85      1.87      0.52
  133              -2200.01      2.25      0.91
  135                411.29      0.29      0.02
  137                 52.16      0.08      0.00
  145                359.14      2.29      2.74
  147                351.95      2.25      2.64
  149               -774.18      4.94     11.37
  151               -766.62      4.89     11.17
  153                434.25      1.23      0.54
  155                467.96      1.33      0.62
  159               -478.39      1.36      0.65
  161               -511.42      3.26      5.28
  163               -172.62      0.49      0.10
  169                226.50      1.45      1.17
  171                515.07      1.46      0.74
  173               7957.82      3.61      1.17
  175               7894.64      3.58      1.15
  177               7844.23      3.56      1.14
  179               7582.16      3.44      1.07
  180                  3.17      0.01      0.00
  181                  3.17      0.01      0.00
  183               7373.85      3.35      1.02
  185                -17.76      0.11      0.01
  186                369.50      2.36      2.89
  187               6776.65      3.08      0.87
  189               4921.93      2.23      0.48
  191              -1806.72      1.28      0.26
  193              -1513.53      1.07      0.19
  195                443.54      1.26      0.56
  197                372.57      1.06      0.41
  199               -101.15      0.29      0.04
  201               -473.72      1.34      0.64
  202                576.62      3.68      6.59
  203                238.42      1.52      1.28
  204                576.62      1.64      0.91
  205                369.50      1.05      0.40
  207                339.57      0.96      0.34
  209                157.46      1.01      0.60
  211                579.45      1.64      0.92
  213                212.04      0.60      0.14
  215                199.60      0.57      0.13
  217               -232.74      0.66      0.17
  219               -242.79      0.69      0.18
  221                242.79      1.55      1.33
  223                 79.22      0.22      0.02
  225                100.01      0.28      0.04
  229               4921.93      3.49      1.43
  231               4679.06      3.32      1.30
  233               4765.66      3.38      1.56
  235                 97.30      0.28      0.03
  237                476.59      1.35      0.64
  238                368.51      1.05      0.40
  239                -23.43      0.07      0.00
  240                368.51      1.05      0.40
  241                368.51      1.05      0.40
  243                367.45      0.59      0.10
  245                272.88      0.44      0.06
  247                220.25      0.35      0.04
  249                107.77      0.17      0.01
  251                 50.41      0.11      0.00
  257                 27.82      0.08      0.00
  261                 35.63      0.23      0.04
  263                 20.11      0.06      0.00
  269                 83.99      0.24      0.03
  271                 62.78      0.40      0.11
  273                  2.17      0.01      0.00
  275                -16.32      0.05      0.00
  277                  5.29      0.02      0.00
  281                -21.62      0.09      0.01
  283                -35.94      0.10      0.01
  285                 -0.17      0.00      0.00
  287               -107.31      0.44      0.10
  289                288.68      1.18      0.62
  291                 66.51      0.27      0.04
  293                 65.59      0.42      0.12
  295                -36.11      0.10      0.01
  297                478.15      3.05      4.66
  299                229.74      1.47      1.20
  301                229.74      1.47      1.20
  303                248.42      1.59      1.39
  305                145.60      0.41      0.07
  307                394.01      1.12      0.45
  309                193.64      1.24      0.87
  311                  5.96      0.02      0.00
  313                429.09      1.22      0.53
  315              -1957.07      1.39      0.30
  317                117.59      0.75      0.35
  319                -20.29      0.06      0.00
  321               7567.50      3.43      1.07
  323               -141.02      0.40      0.07
  325                150.35      0.96      0.55
  329              13149.56      5.97      3.01
  330                  0.00      0.00      0.00
  333                 -0.00      0.00      0.00
  10                   0.00      0.00      0.00  Pump
  335              13149.56      0.00    -93.52  Pump
   
   
  Node Results at 0:25:00 hrs:
  --------------------------------------------------------
                     Demand      Head  Pressure  Chemical
  Node                  gpm        ft       psi      mg/L
  --------------------------------------------------------
  10                   0.00    146.30     -0.30      0.00
  15                 766.62    111.74     34.55      0.00
  20                   0.00    158.35     12.72      0.00
  35                1513.53    146.05     57.87      0.00
  40                   0.00    145.29      5.80      0.00
  50                   0.00    139.47      9.95      0.00
  60                   0.00    209.03     90.57      0.00
  601                  0.00    302.56    131.10      0.00
  61                   0.00    302.56    131.10      0.00
  101                231.74    146.30     45.19      0.00
  103                162.50    146.26     44.74      0.00
  105                165.15    147.54     51.58      0.00
  107                 66.66    147.53     54.39      0.00
  109                282.31    146.26     54.58      0.00
  111                173.17    146.69     59.23      0.00
  113                 24.41    146.70     62.70      0.00
  115                 63.56    147.55     57.87      0.00
  117                143.61    150.63     59.37      0.00
  119                214.88    157.86     67.53      0.00
  120                  0.00    155.53     67.39      0.00
  121                 50.79    161.32     70.77      0.00
  123                  0.00    165.77     67.06      0.00
  125                 55.63    160.74     64.88      0.00
  127                 21.55    159.06     44.65      0.00
  129                  0.00    159.04     46.81      0.00
  131                 52.16    159.03     66.31      0.00
  139                  7.19    151.50     52.21      0.00
  141                 12.02    146.08     61.56      0.00
  143                  7.56    130.16     58.35      0.00
  145                 33.71    147.98     63.69      0.00
  147                 10.43    149.35     56.70      0.00
  149                 33.03    149.91     58.02      0.00
  151                176.27    155.29     52.77      0.00
  153                 53.89    155.41     38.65      0.00
  157                 63.18    155.42     61.67      0.00
  159                 50.41    152.06     63.29      0.00
  161                 19.28    149.78     63.17      0.00
  163                 11.49    149.32     62.53      0.00
  164                  0.00    149.32     62.53      0.00
  166                  3.17    149.32     65.57      0.00
  167                 17.76    147.43     66.05      0.00
  169                  0.00    147.43     66.05      0.00
  171                 47.99    146.33     65.14      0.00
  173                  0.00    146.30     65.13      0.00
  177                 70.97    146.04     59.81      0.00
  179                  0.00    146.03     59.81      0.00
  181                  0.00    146.05     59.82      0.00
  183                  0.00    146.03     58.51      0.00
  184                  0.00    144.71     55.77      0.00
  185                 31.29    145.38     56.06      0.00
  187                  0.00    146.20     57.93      0.00
  189                131.66    146.50     61.74      0.00
  191                 99.92    146.57     52.67      0.00
  193                 87.00    146.66     55.75      0.00
  195                  0.00    146.72     56.86      0.00
  197                 20.79    146.59     53.55      0.00
  199                145.57    140.58     61.78      0.00
  201                 54.42    139.76     60.51      0.00
  203               4765.66    139.57     59.61      0.00
  204                  0.00    145.91     54.12      0.00
  205                 79.74    140.56     51.80      0.00
  206                  0.00    139.59     60.05      0.00
[...]
  219                 64.05    138.90     58.45     16.38
  225                 35.34    138.91     56.72     16.28
  229                 99.48    139.05     55.70     20.34
  231                 25.54    139.04     58.08     13.28
  237                 24.20    139.17     54.24      0.00
  239                 69.15    139.17     54.67     39.58
  241                  0.00    139.17     54.67     40.05
  243                  6.73    139.17     54.24      0.00
  247                109.09    139.17     52.50      2.14
  249                  0.00    139.17     52.50     46.28
  251                 37.45    139.18     47.31      1.05
  253                 84.51    139.28     44.75     13.23
  255                 62.60    139.35     48.68      1.05
  257                  0.00    152.41     58.67      0.00
  259                  0.00    151.97     55.02      0.00
  261                  0.00    150.39     65.16      0.00
  263                  0.00    150.22     65.09      0.00
  265                  0.00    148.97     64.55      0.00
  267                  0.00    147.32     54.74      0.00
  269                  0.00    147.78     64.03      0.00
  271                  0.00    147.35     61.25      0.00
  273                  0.00    141.55     57.87      0.00
  275                  0.00    140.79     56.67      0.00
  River           -13186.72    220.00      0.00      0.00  Reservoir
  Lake                 0.00    167.00      0.00      0.00  Reservoir
  1                 -572.34    148.40      7.15     19.84  Tank
  2                 -344.75    140.14     10.24      1.05  Tank
  3                  967.31    160.40     13.61      0.00  Tank
   
   
  Link Results at 23:55:00 hrs:
  ----------------------------------------------
                       Flow  Velocity  Headloss
  Link                  gpm       fps   /1000ft
  ----------------------------------------------
  20                -967.31      0.04      0.00
  40                 572.34      0.02      0.00
  50                 344.75      0.01      0.00
  60               13186.72      9.35      8.96
  101                  0.00      0.00      0.00
  103                135.47      0.22      0.02
  105               -429.89      1.22      0.53
  107                  1.33      0.00      0.00
  109                -70.99      0.11      0.00
  111               -429.66      1.22      0.53
  112                441.79      1.25      0.56
  113               -160.29      0.45      0.09
  114                 99.00      0.63      0.25
  115                -83.36      0.53      0.18
  116                -92.31      0.26      0.03
  117                641.05      1.82      1.11
  119               -704.90      2.00      1.33
  120               1167.83      3.31      3.38
  121               1039.78      2.95      2.72
  122                360.57      2.30      2.76
  123               9412.32      4.27      1.60
  125              11398.12      5.17      2.28
  129               1560.71      1.11      0.20
  131               1292.89      0.92      0.14
  133               -967.31      0.99      0.20
  135                298.21      0.21      0.01
  137                 66.26      0.11      0.00
  145                231.94      1.48      1.22
  147                222.81      1.42      1.13
  149               -351.45      2.24      2.63
  151               -341.84      2.18      2.50
  153                143.90      0.41      0.07
  155                186.73      0.53      0.11
  159               -199.98      0.57      0.13
  161               -241.94      1.54      1.32
  163               -128.67      0.37      0.06
  169                197.14      1.26      0.90
  171                337.21      0.96      0.34
  173               7634.28      3.47      1.08
  175               7554.00      3.43      1.06
  177               7489.96      3.40      1.05
  179               7208.59      3.27      0.97
  180                  4.03      0.01      0.00
  181                  4.03      0.01      0.00
  183               6976.59      3.17      0.92
  185                -22.57      0.14      0.02
  186                307.28      1.96      2.05
  187               6343.47      2.88      0.77
  189               4980.17      2.26      0.49
  191              -1302.32      0.92      0.14
  193              -1683.38      1.19      0.23
  195               -266.25      0.76      0.22
  197               -356.41      1.01      0.38
  199                215.92      0.61      0.15
  201                572.34      1.62      0.90
  202                571.09      3.65      6.47
  203                303.57      1.94      2.01
  204                571.09      1.62      0.90
  205                307.28      0.87      0.28
  207                 87.65      0.25      0.03
  209                203.58      1.30      0.96
  211                610.55      1.73      1.02
  213                103.70      0.29      0.04
  215                -37.24      0.11      0.01
  217               -304.65      0.86      0.28
  219               -256.87      0.73      0.20
  221                256.87      1.64      1.47
  223                -74.00      0.21      0.02
  225                -47.59      0.14      0.01
  229               4980.17      3.53      1.46
  231               4656.22      3.30      1.29
  233               4598.11      3.26      1.46
  235                139.01      0.39      0.07
  237                492.06      1.40      0.68
  238                490.20      1.39      0.68
  239                105.70      0.30      0.04
  240                490.20      1.39      0.68
  241                490.20      1.39      0.68
  243                488.86      0.78      0.17
  245                349.94      0.56      0.09
  247                279.82      0.45      0.06
  249                136.93      0.22      0.02
  251                 64.05      0.13      0.01
  257                 35.34      0.10      0.01
  261                 48.51      0.31      0.07
  263                 25.54      0.07      0.00
  269                125.47      0.36      0.05
  271                 76.51      0.49      0.16
  273                 24.77      0.07      0.00
  275                -12.49      0.04      0.00
  277                  6.73      0.02      0.00
  281                -19.22      0.08      0.00
  283                -31.89      0.09      0.00
  285                 -5.87      0.02      0.00
  287               -122.44      0.50      0.13
  289                344.75      1.41      0.86
  291                 84.51      0.35      0.06
  293                 75.20      0.48      0.15
  295                -37.75      0.11      0.01
  297                488.62      3.12      4.85
  299                234.85      1.50      1.25
  301                234.85      1.50      1.25
  303                253.77      1.62      1.44
  305                152.43      0.43      0.08
  307                406.20      1.15      0.48
  309                213.37      1.36      1.05
  311               -250.61      0.71      0.20
  313                495.74      1.41      0.69
  315              -1417.13      1.01      0.17
  317                116.74      0.75      0.34
  319                 22.27      0.06      0.00
  321               7189.96      3.26      0.97
  323                -11.04      0.03      0.00
  325                114.80      0.73      0.33
  329              13186.72      5.99      3.02
  330                  0.00      0.00      0.00
  333                 -0.00      0.00      0.00
  10                   0.00      0.00      0.00  Pump
  335              13186.72      0.00    -93.19  Pump
   
   
  Node Results at 24:00:00 hrs:
  --------------------------------------------------------
                     Demand      Head  Pressure  Chemical
  Node                  gpm        ft       psi      mg/L
  --------------------------------------------------------
  10                   0.00    148.69      0.73      0.00
  15                 766.62    113.90     35.49      0.00
  20                   0.00    160.44     13.62      0.00
  35                1513.53    148.53     58.94      3.23
  40                   0.00    148.33      7.12     19.84
  50                   0.00    140.02     10.19      1.05
  60                   0.00    209.14     90.62      0.00
  601                  0.00    303.29    131.42      0.00
  61                   0.00    303.29    131.42      0.00
  101                231.74    148.69     46.23      0.00
  103                162.50    148.65     45.78      0.00
  105                165.15    149.91     52.61      0.00
  107                 66.66    149.90     55.42      0.00
  109                282.31    148.65     55.62      0.00
  111                173.17    149.10     60.27      0.00
  113                 24.41    149.10     63.74      0.00
  115                 63.56    149.93     58.90      0.00
  117                143.61    152.95     60.38      0.00
  119                214.88    160.06     68.49      0.00
  120                  0.00    157.77     68.36      0.00
  121                 50.79    163.46     71.69      0.00
  123                  0.00    167.86     67.97      0.00
  125                 55.63    162.87     65.80      0.00
  127                 21.55    161.16     45.57      0.00
  129                  0.00    161.14     47.73      0.00
  131                 52.16    161.13     67.22      0.00
  139                  7.19    153.63     53.14      0.00
  141                 12.02    148.24     62.50      0.00
  143                  7.56    132.32     59.28      0.00
  145                 33.71    150.14     64.62      0.00
  147                 10.43    151.51     57.63      0.00
  149                 33.03    152.08     58.96      0.00
  151                176.27    157.48     53.72      0.00
  153                 53.89    157.59     39.60      0.00
  157                 63.18    157.67     62.64      0.00
  159                 50.41    154.37     64.29      0.00
  161                 19.28    152.14     64.19      0.00
  163                 11.49    151.69     63.56      0.00
  164                  0.00    151.69     63.56      0.00
  166                  3.17    151.69     66.59      0.00
  167                 17.76    149.84     67.09      0.00
  169                  0.00    149.84     67.09      0.00
  171                 47.99    148.76     66.19      0.00
  173                  0.00    148.73     66.18      0.00
  177                 70.97    148.53     60.89     19.84
  179                  0.00    148.53     60.89     19.84
  181                  0.00    148.53     60.89      3.14
  183                  0.00    148.53     59.59     14.11
  184                  0.00    147.09     56.80      7.15
  185                 31.29    147.79     57.10      7.09
  187                  0.00    148.62     58.98      0.00
  189                131.66    148.93     62.80      0.00
  191                 99.92    148.98     53.72      0.00
  193                 87.00    149.07     56.79      0.00
  195                  0.00    149.13     57.90      0.00
  197                 20.79    149.00     54.60      0.00
  199                145.57    142.74     62.71      0.00
  201                 54.42    141.88     61.43      0.00
  203               4765.66    141.69     60.53      0.00
  204                  0.00    148.33     55.17      0.00
  205                 79.74    142.70     52.73      0.42
  206                  0.00    141.49     60.88      1.62
  207                 84.66    141.83     57.56      1.64
  208                  0.00    141.11     54.21      1.58
  209                  1.06    140.44     61.72      1.53
  211                 10.58    140.21     57.72      2.91
  213                 17.01    140.15     57.69     11.85
  215                112.47    139.98     57.62     43.13
  217                 29.55    139.97     58.05     17.12
  219                 50.41    139.96     58.91     16.48
  225                 27.82    139.96     57.18     16.41
  229                 78.30    139.90     56.07     17.09
  231                 20.11    139.89     58.45     13.10
  237                 19.04    139.93     54.56      0.00
  239                 54.42    139.89     54.98     39.56
  241                  0.00    139.89     54.98     40.10
  243                  5.29    139.89     54.55      0.00
  247                 85.86    139.88     52.81      3.03
  249                  0.00    139.88     52.81     45.88
  251                 29.48    139.88     47.61      1.05
  253                 66.51    139.84     44.99      5.94
  255                 49.28    139.88     48.91      1.05
  257                  0.00    154.81     59.71      0.00
  259                  0.00    154.40     56.07      0.00
  261                  0.00    152.90     66.25      0.00
  263                  0.00    152.75     66.19      0.00
  265                  0.00    150.43     65.18      0.00
  267                  0.00    149.07     55.49      0.00
  269                  0.00    149.27     64.68      0.00
  271                  0.00    148.60     61.79      0.00
  273                  0.00    142.70     58.37      0.00
  275                  0.00    141.88     57.14      0.00
  River           -13076.85    220.00      0.00      0.00  Reservoir
  Lake                 0.00    167.00      0.00      0.00  Reservoir
  1                  229.11    148.33      7.12     19.84  Tank
  2                 -136.53    140.02     10.19      1.05  Tank
  3                 2219.77    160.44     13.62      0.00  Tank
   
   
  Link Results at 24:00:00 hrs:
  ----------------------------------------------
                       Flow  Velocity  Headloss
  Link                  gpm       fps   /1000ft
  ----------------------------------------------
  20               -2219.77      0.09      0.00
  40                -229.11      0.01      0.00
  50                 136.53      0.01      0.00
  60               13076.85      9.27      8.83
  101                  0.00      0.00      0.00
  103                176.53      0.28      0.03
  105               -408.27      1.16      0.48
  107                 44.88      0.13      0.01
  109                 14.03      0.02      0.00
  111               -268.28      0.76      0.22
  112                506.67      1.44      0.72
  113                -30.97      0.09      0.00
  114                129.40      0.83      0.41
  115                -21.78      0.14      0.02
  116                 74.01      0.21      0.02
  117                618.30      1.75      1.04
  119               -721.41      2.05      1.38
  120               1121.83      3.18      3.14
  121               1009.23      2.86      2.58
  122                361.48      2.31      2.77
  123               9731.58      4.42      1.70
  125              13076.85      5.94      2.94
  129               2933.00      2.08      0.64
  131               2651.92      1.88      0.53
  133              -2219.77      2.27      0.92
  135                410.61      0.29      0.02
  137                 52.16      0.08      0.00
  145                358.45      2.29      2.73
  147                351.27      2.24      2.63
  149               -774.18      4.94     11.37
  151               -766.62      4.89     11.17
  153                434.93      1.23      0.54
  155                468.64      1.33      0.62
  159               -479.07      1.36      0.65
  161               -512.10      3.27      5.29
  163               -171.55      0.49      0.10
  169                225.44      1.44      1.16
  171                516.81      1.47      0.75
  173               7878.06      3.58      1.15
  175               7814.88      3.55      1.13
  177               7764.47      3.52      1.12
  179               7504.60      3.41      1.05
  180                  3.17      0.01      0.00
  181                  3.17      0.01      0.00
  183               7297.79      3.31      1.00
  185                -17.76      0.11      0.01
  186                371.69      2.37      2.92
  187               6711.03      3.05      0.85
  189               5055.77      2.29      0.51
  191              -1607.27      1.14      0.21
  193              -1513.53      1.07      0.19
  195                239.62      0.68      0.18
  197                168.66      0.48      0.09
  199                -60.45      0.17      0.01
  201               -229.11      0.65      0.17
  202                594.94      3.80      6.98
  203                254.55      1.62      1.45
  204                594.94      1.69      0.97
  205                371.69      1.05      0.41
  207                315.00      0.89      0.30
  209                161.76      1.03      0.63
  211                568.99      1.61      0.89
  213                209.93      0.60      0.14
  215                185.32      0.53      0.11
  217               -234.44      0.67      0.17
  219               -240.59      0.68      0.18
  221                240.59      1.54      1.31
  223                 75.41      0.21      0.02
  225                 96.20      0.27      0.03
  229               5055.77      3.59      1.50
  231               4795.23      3.40      1.36
  233               4765.66      3.38      1.56
  235                114.96      0.33      0.05
  237                508.65      1.44      0.72
  238                520.66      1.48      0.76
  239                 96.67      0.27      0.03
  240                520.66      1.48      0.76
  241                520.66      1.48      0.76
  243                519.60      0.83      0.19
  245                301.35      0.48      0.07
  247                220.25      0.35      0.04
  249                107.77      0.17      0.01
  251                 50.41      0.11      0.00
  257                 27.82      0.08      0.00
  261                 64.09      0.41      0.11
  263                 20.11      0.06      0.00
  269                207.68      0.59      0.14
  271                 34.31      0.22      0.04
  273                154.32      0.44      0.08
  275                 40.70      0.12      0.01
  277                  5.29      0.02      0.00
  281                 35.40      0.14      0.01
  283                 59.20      0.17      0.01
  285                -40.02      0.11      0.01
  287                -10.44      0.04      0.00
  289                136.53      0.56      0.15
  291                 66.51      0.27      0.04
  293                 10.30      0.07      0.00
  295                 19.18      0.05      0.00
  297                474.09      3.03      4.58
  299                227.78      1.45      1.18
  301                227.78      1.45      1.18
  303                246.31      1.57      1.36
  305                144.21      0.41      0.07
  307                390.52      1.11      0.44
  309                192.15      1.23      0.86
  311                 -6.83      0.02      0.00
  313                423.11      1.20      0.52
  315              -1753.15      1.24      0.24
  317                121.52      0.78      0.37
  319                 -6.55      0.02      0.00
  321               7489.93      3.40      1.05
  323                -24.85      0.07      0.00
  325                145.88      0.93      0.52
  329              13076.85      5.94      2.98
  330                  0.00      0.00      0.00
  333                 -0.00      0.00      0.00
  10                   0.00      0.00      0.00  Pump
  335              13076.85      0.00    -94.16  Pump
   
  Analysis ended Wed May 06 17:09:20 2020
