  Page 1                                    Wed May 06 17:10:10 2020

  ******************************************************************
  *                           E P A N E T                          *
  *                   Hydraulic and Water Quality                  *
  *                   Analysis for Pipe Networks                   *
  *                         Version 2.00.12                        *
  ******************************************************************
  
  Analysis begun Wed May 06 17:10:10 2020

   
  Hydraulic Status:
  -----------------------------------------------------------------------
     0:00:00: Balanced after 5 trials
     0:00:00: Reservoir River is emptying
     0:00:00: Reservoir Lake is closed
     0:00:00: Tank 1 is filling at 13.10 ft
     0:00:00: Tank 2 is emptying at 23.50 ft
     0:00:00: Tank 3 is filling at 29.00 ft
   
     0:05:00: Balanced after 2 trials
   
     0:10:00: Balanced after 2 trials
   
     0:15:00: Balanced after 2 trials
   
     0:20:00: Balanced after 2 trials
   
     0:25:00: Balanced after 2 trials
   
     0:30:00: Balanced after 2 trials
   
     0:35:00: Balanced after 2 trials
   
     0:40:00: Balanced after 2 trials
   
     0:45:00: Balanced after 2 trials
   
     0:50:00: Balanced after 2 trials
   
     0:55:00: Balanced after 2 trials
   
     1:00:00: Pump 10 changed by timer control
     1:00:00: Balanced after 7 trials
     1:00:00: Reservoir Lake is emptying
     1:00:00: Pump 10 changed from closed to open
   
     1:05:00: Balanced after 2 trials
   
     1:10:00: Balanced after 2 trials
   
     1:15:00: Balanced after 2 trials
   
     1:20:00: Balanced after 2 trials
   
     1:25:00: Balanced after 2 trials
   
     1:30:00: Balanced after 2 trials
   
     1:35:00: Balanced after 2 trials
   
     1:40:00: Balanced after 2 trials
   
     1:45:00: Balanced after 2 trials
   
     1:50:00: Balanced after 2 trials
   
     1:55:00: Balanced after 2 trials
   
     2:00:00: Balanced after 4 trials
   
     2:05:00: Balanced after 1 trials
   
     2:10:00: Balanced after 1 trials
   
     2:15:00: Balanced after 1 trials
     2:15:00: Tank 2 is filling at 20.12 ft
   
     2:20:00: Balanced after 1 trials
   
     2:25:00: Balanced after 1 trials
   
     2:30:00: Balanced after 1 trials
   
     2:35:00: Balanced after 1 trials
   
     2:40:00: Balanced after 1 trials
   
     2:45:00: Balanced after 1 trials
   
     2:50:00: Balanced after 1 trials
   
     2:55:00: Balanced after 1 trials
   
     3:00:00: Balanced after 3 trials
   
     3:05:00: Balanced after 1 trials
   
     3:10:00: Balanced after 1 trials
   
     3:15:00: Balanced after 1 trials
   
     3:20:00: Balanced after 1 trials
   
     3:25:00: Balanced after 1 trials
   
     3:30:00: Balanced after 1 trials
   
     3:35:00: Balanced after 1 trials
   
     3:40:00: Balanced after 1 trials
   
     3:45:00: Balanced after 1 trials
   
     3:50:00: Balanced after 1 trials
   
     3:55:00: Balanced after 1 trials
   
     4:00:00: Balanced after 3 trials
   
     4:05:00: Balanced after 1 trials
   
     4:10:00: Balanced after 1 trials
   
     4:15:00: Balanced after 1 trials
   
     4:20:00: Balanced after 1 trials
   
     4:25:00: Balanced after 1 trials
   
     4:30:00: Balanced after 1 trials
   
     4:35:00: Balanced after 1 trials
   
     4:35:21: Pump 335 changed by Tank 1 control
     4:35:21: Pipe 330 changed by Tank 1 control
     4:35:21: Balanced after 4 trials
     4:35:21: Pipe 330 changed from closed to open
     4:35:21: Pump 335 changed from open to closed
   
     4:40:00: Balanced after 2 trials
   
     4:45:00: Balanced after 2 trials
   
     4:50:00: Balanced after 2 trials
   
     4:55:00: Balanced after 2 trials
   
     5:00:00: Balanced after 3 trials
     5:00:00: Tank 3 is emptying at 34.45 ft
   
     5:05:00: Balanced after 2 trials
   
     5:10:00: Balanced after 2 trials
   
     5:15:00: Balanced after 2 trials
   
     5:20:00: Balanced after 2 trials
   
     5:25:00: Balanced after 2 trials
   
     5:30:00: Balanced after 2 trials
   
     5:35:00: Balanced after 2 trials
   
     5:40:00: Balanced after 2 trials
   
     5:45:00: Balanced after 2 trials
   
     5:50:00: Balanced after 2 trials
   
     5:55:00: Balanced after 2 trials
   
     6:00:00: Balanced after 3 trials
     6:00:00: Tank 3 is filling at 34.34 ft
   
     6:05:00: Balanced after 1 trials
   
     6:10:00: Balanced after 1 trials
   
     6:15:00: Balanced after 1 trials
   
     6:20:00: Balanced after 1 trials
   
     6:25:00: Balanced after 1 trials
   
     6:30:00: Balanced after 1 trials
   
     6:35:00: Balanced after 1 trials
   
     6:40:00: Balanced after 1 trials
   
     6:45:00: Balanced after 1 trials
   
     6:50:00: Balanced after 1 trials
   
     6:55:00: Balanced after 1 trials
   
     7:00:00: Balanced after 3 trials
   
     7:05:00: Balanced after 1 trials
   
     7:10:00: Balanced after 1 trials
   
     7:15:00: Balanced after 1 trials
   
     7:20:00: Balanced after 1 trials
   
     7:25:00: Balanced after 1 trials
   
     7:30:00: Balanced after 1 trials
   
     7:35:00: Balanced after 1 trials
   
     7:40:00: Balanced after 1 trials
   
     7:45:00: Balanced after 1 trials
   
     7:50:00: Balanced after 1 trials
   
     7:55:00: Balanced after 1 trials
   
     8:00:00: Balanced after 3 trials
   
     8:05:00: Balanced after 1 trials
   
     8:10:00: Balanced after 1 trials
   
     8:15:00: Balanced after 1 trials
   
     8:20:00: Balanced after 1 trials
   
     8:25:00: Balanced after 1 trials
   
     8:30:00: Balanced after 1 trials
   
     8:35:00: Balanced after 1 trials
   
     8:40:00: Balanced after 1 trials
   
     8:45:00: Balanced after 1 trials
   
     8:50:00: Balanced after 1 trials
   
     8:55:00: Balanced after 1 trials
   
     9:00:00: Balanced after 4 trials
     9:00:00: Tank 3 is emptying at 35.27 ft
   
     9:05:00: Balanced after 2 trials
   
     9:10:00: Balanced after 2 trials
   
     9:15:00: Balanced after 2 trials
   
     9:20:00: Balanced after 2 trials
   
     9:25:00: Balanced after 2 trials
   
     9:30:00: Balanced after 2 trials
   
     9:35:00: Balanced after 2 trials
   
     9:40:00: Balanced after 2 trials
   
     9:45:00: Balanced after 2 trials
   
     9:50:00: Balanced after 2 trials
   
     9:55:00: Balanced after 2 trials
   
    10:00:00: Balanced after 3 trials
   
    10:05:00: Balanced after 2 trials
   
    10:10:00: Balanced after 2 trials
   
    10:15:00: Balanced after 2 trials
   
    10:20:00: Balanced after 2 trials
   
    10:25:00: Balanced after 1 trials
   
    10:30:00: Balanced after 1 trials
   
    10:35:00: Balanced after 1 trials
   
    10:40:00: Balanced after 1 trials
   
    10:45:00: Balanced after 1 trials
   
    10:50:00: Balanced after 1 trials
   
    10:55:00: Balanced after 1 trials
   
    11:00:00: Balanced after 3 trials
    11:00:00: Tank 1 is emptying at 22.39 ft
   
    11:05:00: Balanced after 2 trials
   
    11:10:00: Balanced after 1 trials
   
    11:15:00: Balanced after 1 trials
   
    11:20:00: Balanced after 1 trials
   
    11:25:00: Balanced after 1 trials
   
    11:30:00: Balanced after 1 trials
    11:30:00: Tank 2 is closed at 27.83 ft
   
    11:35:00: Balanced after 1 trials
    11:35:00: Tank 2 is emptying at 27.83 ft
   
    11:40:00: Balanced after 1 trials
   
    11:45:00: Balanced after 1 trials
   
    11:50:00: Balanced after 1 trials
   
    11:55:00: Balanced after 1 trials
   
    12:00:00: Balanced after 4 trials
   
    12:05:00: Balanced after 2 trials
   
    12:10:00: Balanced after 2 trials
   
    12:15:00: Balanced after 1 trials
   
    12:20:00: Balanced after 1 trials
   
    12:25:00: Balanced after 1 trials
   
    12:30:00: Balanced after 1 trials
   
    12:35:00: Balanced after 1 trials
   
    12:40:00: Balanced after 1 trials
   
    12:45:00: Balanced after 1 trials
   
    12:50:00: Balanced after 1 trials
   
    12:55:00: Balanced after 1 trials
   
    13:00:00: Balanced after 3 trials
   
    13:05:00: Balanced after 1 trials
   
    13:10:00: Balanced after 1 trials
   
    13:15:00: Balanced after 1 trials
   
    13:20:00: Balanced after 1 trials
   
    13:25:00: Balanced after 1 trials
   
    13:30:00: Balanced after 1 trials
   
    13:35:00: Balanced after 1 trials
   
    13:40:00: Balanced after 1 trials
   
    13:45:00: Balanced after 1 trials
   
    13:50:00: Balanced after 1 trials
   
    13:55:00: Balanced after 1 trials
   
    14:00:00: Balanced after 3 trials
    14:00:00: Tank 1 is filling at 21.10 ft
    14:00:00: Tank 2 is filling at 26.36 ft
   
    14:05:00: Balanced after 2 trials
   
    14:10:00: Balanced after 2 trials
   
    14:15:00: Balanced after 2 trials
   
    14:20:00: Balanced after 2 trials
    14:20:00: Tank 1 is emptying at 21.11 ft
   
    14:25:00: Balanced after 2 trials
   
    14:30:00: Balanced after 2 trials
   
    14:35:00: Balanced after 2 trials
   
    14:40:00: Balanced after 2 trials
   
    14:45:00: Balanced after 2 trials
   
    14:50:00: Balanced after 2 trials
   
    14:55:00: Balanced after 1 trials
   
    15:00:00: Pump 10 changed by timer control
    15:00:00: Balanced after 5 trials
    15:00:00: Reservoir Lake is closed
    15:00:00: Tank 2 is emptying at 26.86 ft
    15:00:00: Pump 10 changed from open to closed
   
    15:05:00: Balanced after 2 trials
   
    15:10:00: Balanced after 2 trials
   
    15:15:00: Balanced after 2 trials
   
    15:20:00: Balanced after 2 trials
   
    15:25:00: Balanced after 2 trials
   
    15:30:00: Balanced after 1 trials
   
    15:35:00: Balanced after 1 trials
   
    15:40:00: Balanced after 1 trials
   
    15:45:00: Balanced after 1 trials
   
    15:50:00: Balanced after 1 trials
   
    15:55:00: Balanced after 1 trials
   
    16:00:00: Balanced after 4 trials
    16:00:00: Tank 2 is filling at 26.59 ft
   
    16:05:00: Balanced after 2 trials
   
    16:10:00: Balanced after 2 trials
   
    16:15:00: Balanced after 2 trials
   
    16:20:00: Balanced after 2 trials
   
    16:25:00: Balanced after 2 trials
   
    16:30:00: Balanced after 2 trials
   
    16:35:00: Balanced after 2 trials
   
    16:40:00: Balanced after 2 trials
   
    16:45:00: Balanced after 2 trials
   
    16:50:00: Balanced after 1 trials
   
    16:55:00: Balanced after 1 trials
   
    17:00:00: Balanced after 3 trials
    17:00:00: Tank 2 is emptying at 26.81 ft
   
    17:05:00: Balanced after 1 trials
   
    17:10:00: Balanced after 1 trials
   
    17:15:00: Balanced after 1 trials
   
    17:20:00: Balanced after 1 trials
   
    17:25:00: Balanced after 1 trials
   
    17:30:00: Balanced after 1 trials
   
    17:35:00: Balanced after 1 trials
   
    17:40:00: Balanced after 1 trials
   
    17:45:00: Balanced after 1 trials
   
    17:50:00: Balanced after 1 trials
   
    17:55:00: Balanced after 1 trials
   
    18:00:00: Balanced after 4 trials
    18:00:00: Tank 1 is filling at 18.54 ft
    18:00:00: Tank 2 is filling at 26.42 ft
   
    18:05:00: Balanced after 2 trials
   
    18:10:00: Balanced after 2 trials
   
    18:15:00: Balanced after 2 trials
   
    18:20:00: Balanced after 2 trials
   
    18:25:00: Balanced after 2 trials
   
    18:30:00: Balanced after 2 trials
   
    18:35:00: Balanced after 2 trials
   
    18:40:00: Balanced after 2 trials
   
    18:45:00: Balanced after 2 trials
   
    18:50:00: Balanced after 2 trials
   
    18:55:00: Balanced after 2 trials
   
    19:00:00: Balanced after 4 trials
    19:00:00: Tank 1 is emptying at 18.70 ft
    19:00:00: Tank 2 is emptying at 27.27 ft
   
    19:05:00: Balanced after 1 trials
   
    19:10:00: Balanced after 1 trials
   
    19:15:00: Balanced after 1 trials
   
    19:20:00: Balanced after 1 trials
   
    19:25:00: Balanced after 1 trials
   
    19:30:00: Balanced after 1 trials
   
    19:35:00: Balanced after 1 trials
   
    19:40:00: Balanced after 1 trials
   
    19:45:00: Balanced after 1 trials
   
    19:50:00: Balanced after 1 trials
   
    19:55:00: Balanced after 1 trials
   
    20:00:00: Balanced after 3 trials
   
    20:05:00: Balanced after 1 trials
   
    20:10:00: Balanced after 1 trials
   
    20:15:00: Balanced after 1 trials
   
    20:20:00: Balanced after 1 trials
   
    20:25:00: Balanced after 1 trials
   
    20:30:00: Balanced after 1 trials
   
    20:35:00: Balanced after 1 trials
   
    20:40:00: Balanced after 1 trials
   
    20:45:00: Balanced after 1 trials
   
    20:50:00: Balanced after 1 trials
   
    20:55:00: Balanced after 1 trials
   
    21:00:00: Balanced after 4 trials
   
    21:05:00: Balanced after 2 trials
   
    21:10:00: Balanced after 2 trials
   
    21:15:00: Balanced after 2 trials
   
    21:20:00: Balanced after 2 trials
   
    21:24:27: Pump 335 changed by Tank 1 control
    21:24:27: Pipe 330 changed by Tank 1 control
    21:24:27: Balanced after 5 trials
    21:24:27: Tank 3 is filling at 29.45 ft
    21:24:27: Pipe 330 changed from open to closed
    21:24:27: Pump 335 changed from closed to open
   
    21:25:00: Balanced after 1 trials
   
    21:30:00: Balanced after 2 trials
   
    21:35:00: Balanced after 2 trials
   
    21:40:00: Balanced after 2 trials
   
    21:45:00: Balanced after 2 trials
   
    21:50:00: Balanced after 2 trials
   
    21:55:00: Balanced after 2 trials
   
    22:00:00: Balanced after 3 trials
    22:00:00: Tank 1 is filling at 16.95 ft
   
    22:05:00: Balanced after 2 trials
   
    22:10:00: Balanced after 2 trials
   
    22:15:00: Balanced after 2 trials
   
    22:20:00: Balanced after 2 trials
   
    22:25:00: Balanced after 2 trials
   
    22:30:00: Balanced after 2 trials
   
    22:35:00: Balanced after 2 trials
   
    22:40:00: Balanced after 2 trials
   
    22:45:00: Balanced after 2 trials
   
    22:50:00: Balanced after 2 trials
   
    22:55:00: Balanced after 2 trials
   
    23:00:00: Balanced after 3 trials
    23:00:00: Tank 1 is emptying at 17.10 ft
   
    23:05:00: Balanced after 2 trials
   
    23:10:00: Balanced after 2 trials
   
    23:15:00: Balanced after 2 trials
   
    23:20:00: Balanced after 2 trials
   
    23:25:00: Balanced after 2 trials
   
    23:30:00: Balanced after 2 trials
   
    23:35:00: Balanced after 2 trials
   
    23:40:00: Balanced after 2 trials
   
    23:45:00: Balanced after 2 trials
   
    23:50:00: Balanced after 2 trials
   
    23:55:00: Balanced after 2 trials
   
    24:00:00: Balanced after 3 trials
    24:00:00: Tank 1 is filling at 16.46 ft
   
   
  Node Results at 0:00:00 hrs:
  --------------------------------------------------------
                     Demand      Head  Pressure  Chemical
  Node                  gpm        ft       psi      mg/L
  --------------------------------------------------------
  10                   0.00    144.07     -1.27      0.00
  15                 629.57    123.94     39.84      0.00
  20                   0.00    158.00     12.57      0.00
  35                1292.47    145.64     57.69      0.00
  40                   0.00    145.00      5.68      0.00
  50                   0.00    140.00     10.18      0.00
  60                   0.00    208.99     90.56      0.00
  601                  0.00    302.35    131.01      0.00
  61                   0.00    302.35    131.01      0.00
  101                307.72    144.07     44.23      0.00
  103                215.78    144.05     43.79      0.00
  105                219.30    145.53     50.71      0.00
  107                 88.52    145.53     53.52      0.00
  109                374.87    144.07     53.63      0.00
  111                229.94    145.23     58.60      0.00
  113                 32.42    145.38     62.13      0.00
  115                 84.40    145.92     57.16      0.00
  117                190.69    149.03     58.68      0.00
  119                285.33    157.17     67.23      0.00
  120                  0.00    154.52     66.95      0.00
  121                 67.44    160.69     70.50      0.00
  123                  0.00    165.16     66.80      0.00
  125                 73.87    160.15     64.63      0.00
  127                 28.61    158.63     44.47      0.00
  129                  0.00    158.62     46.63      0.00
  131                 69.25    158.59     66.12      0.00
  139                  9.54    152.34     52.58      0.00
  141                 15.96    147.91     62.36      0.00
  143                 10.04    136.73     61.19      0.00
  145                 44.76    149.11     64.18      0.00
  147                 13.85    150.06     57.01      0.00
  149                 43.85    150.47     58.26      0.00
  151                234.06    154.58     52.46      0.00
  153                 71.56    154.67     38.34      0.00
  157                 83.90    154.76     61.38      0.00
  159                 66.94    151.45     63.02      0.00
  161                 25.60    149.22     62.92      0.00
  163                 15.26    148.77     62.30      0.00
  164                  0.00    148.77     62.30      0.00
  166                  4.21    148.77     65.33      0.00
  167                 23.59    146.95     65.84      0.00
  169                  0.00    146.95     65.84      0.00
  171                 63.73    145.92     64.96      0.00
  173                  0.00    145.90     64.95      0.00
  177                 94.24    145.61     59.63      0.00
  179                  0.00    145.59     59.62      0.00
  181                  0.00    145.64     59.64      0.00
  183                  0.00    145.57     58.31      0.00
  184                  0.00    144.15     55.53      0.00
  185                 41.55    144.70     55.77      0.00
  187                  0.00    145.22     57.51      0.00
  189                174.83    145.67     61.39      0.00
  191                132.68    145.29     52.12      0.00
  193                115.52    145.44     55.22      0.00
  195                  0.00    145.52     56.34      0.00
  197                 27.60    145.26     52.98      0.00
  199                193.30    140.74     61.85      0.00
  201                 72.27    140.03     60.63      0.00
  203               4239.49    139.88     59.74      0.00
  204                  0.00    145.04     53.74      0.00
  205                105.88    140.68     51.86      0.00
  206                  0.00    139.69     60.10      0.00
  207                112.41    139.97     56.75      0.00
  208                  0.00    139.38     53.46      0.00
  209                  1.41    138.85     61.03      0.00
  211                 14.05    138.67     57.05      0.00
  213                 22.58    138.57     57.01      0.00
  215                149.35    138.30     56.89      0.00
  217                 39.24    138.27     57.31      0.00
  219                 66.94    138.26     58.17      0.00
  225                 36.94    138.26     56.44      0.00
  229                103.97    138.45     55.44      0.00
  231                 26.70    138.45     57.82      0.00
  237                 25.29    138.61     53.99      0.00
  239                 72.27    138.61     54.43      0.00
  241                  0.00    138.61     54.43      0.00
  243                  7.03    138.61     53.99      0.00
  247                114.02    138.62     52.26      0.00
  249                  0.00    138.62     52.26      0.00
  251                 39.14    138.64     47.07      0.00
  253                 88.32    138.83     44.56      0.00
  255                 65.43    138.90     48.49      0.00
  257                  0.00    151.15     58.13      0.00
  259                  0.00    150.68     54.46      0.00
  261                  0.00    148.98     64.55      0.00
  263                  0.00    148.80     64.47      0.00
  265                  0.00    147.53     63.92      0.00
  267                  0.00    145.67     54.02      0.00
  269                  0.00    146.19     63.34      0.00
  271                  0.00    145.72     60.54      0.00
  273                  0.00    140.69     57.49      0.00
  275                  0.00    140.03     56.34      0.00
  River           -13168.31    220.00      0.00      0.00  Reservoir
  Lake                 0.00    167.00      0.00      0.00  Reservoir
  1                  412.59    145.00      5.68      0.00  Tank
  2                 -410.71    140.00     10.18      0.00  Tank
  3                 2066.96    158.00     12.57      0.00  Tank
   
   
  Link Results at 0:00:00 hrs:
  ----------------------------------------------
                       Flow  Velocity  Headloss
  Link                  gpm       fps   /1000ft
  ----------------------------------------------
  20               -2066.96      0.09      0.00
  40                -412.59      0.02      0.00
  50                 410.71      0.02      0.00
  60               13168.31      9.34      8.94
  101                  0.00      0.00      0.00
  103                140.08      0.22      0.02
  105               -447.80      1.27      0.57
  107                  0.54      0.00      0.00
  109                -75.71      0.12      0.01
  111               -450.57      1.28      0.58
  112                458.04      1.30      0.60
  113               -166.81      0.47      0.09
  114                102.53      0.65      0.27
  115                -87.97      0.56      0.20
  116                -96.70      0.27      0.03
  117                667.64      1.89      1.20
  119               -732.94      2.08      1.43
  120               1213.40      3.44      3.63
  121               1082.54      3.07      2.94
  122                377.87      2.41      3.01
  123               9928.79      4.51      1.76
  125              13168.31      5.98      2.98
  129               2794.21      1.98      0.58
  131               2490.26      1.77      0.47
  133              -2066.96      2.11      0.81
  135                394.69      0.28      0.02
  137                 69.25      0.11      0.00
  145                325.43      2.08      2.28
  147                315.89      2.02      2.16
  149               -639.61      4.08      7.98
  151               -629.57      4.02      7.75
  153                339.68      0.96      0.34
  155                384.44      1.09      0.43
  159               -398.29      1.13      0.46
  161               -442.14      2.82      4.03
  163               -158.52      0.45      0.08
  169                230.08      1.47      1.20
  171                517.68      1.47      0.75
  173               7912.38      3.59      1.16
  175               7828.48      3.55      1.14
  177               7761.54      3.52      1.12
  179               7466.78      3.39      1.04
  180                  4.21      0.01      0.00
  181                  4.21      0.01      0.00
  183               7219.77      3.28      0.98
  185                -23.59      0.15      0.02
  186                287.50      1.84      1.82
  187               6535.91      2.97      0.81
  189               4661.28      2.12      0.43
  191              -1810.90      1.28      0.26
  193              -1292.47      0.92      0.14
  195                639.40      1.81      1.11
  197                545.16      1.55      0.82
  199                132.58      0.38      0.06
  201               -412.59      1.17      0.49
  202                524.02      3.34      5.52
  203                278.08      1.77      1.71
  204                524.02      1.49      0.77
  205                287.50      0.82      0.25
  207                145.50      0.41      0.07
  209                197.22      1.26      0.90
  211                660.27      1.87      1.17
  213                 90.28      0.26      0.03
  215                -21.75      0.06      0.00
  217               -306.23      0.87      0.28
  219               -269.17      0.76      0.22
  221                269.17      1.72      1.61
  223                -83.27      0.24      0.03
  225                -55.66      0.16      0.01
  229               4661.28      3.31      1.29
  231               4320.76      3.06      1.12
  233               4239.49      3.01      1.26
  235                147.23      0.42      0.07
  237                458.03      1.30      0.60
  238                461.95      1.31      0.61
  239                116.34      0.33      0.05
  240                461.95      1.31      0.61
  241                461.95      1.31      0.61
  243                460.54      0.73      0.15
  245                358.78      0.57      0.09
  247                292.46      0.47      0.06
  249                143.11      0.23      0.02
  251                 66.94      0.14      0.01
  257                 36.94      0.10      0.01
  261                 43.73      0.28      0.06
  263                 26.70      0.08      0.00
  269                 87.72      0.25      0.03
  271                 86.93      0.55      0.20
  273                -24.50      0.07      0.00
  275                -31.93      0.09      0.00
  277                  7.03      0.02      0.00
  281                -38.96      0.16      0.02
  283                -64.84      0.18      0.02
  285                  6.80      0.02      0.00
  287               -159.78      0.65      0.21
  289                410.71      1.68      1.19
  291                 88.32      0.36      0.07
  293                 97.17      0.62      0.24
  295                -58.04      0.16      0.01
  297                508.73      3.25      5.22
  299                244.52      1.56      1.35
  301                244.52      1.56      1.35
  303                264.21      1.69      1.55
  305                158.91      0.45      0.08
  307                423.12      1.20      0.52
  309                227.54      1.45      1.18
  311               -249.29      0.71      0.19
  313                539.30      1.53      0.81
  315              -1931.87      1.37      0.29
  317                107.34      0.69      0.29
  319                 39.89      0.11      0.01
  321               7447.30      3.38      1.04
  323                  9.00      0.03      0.00
  325                120.97      0.77      0.37
  329              13168.31      5.98      3.02
  330                  0.00      0.00      0.00
  333                 -0.00      0.00      0.00
  10                   0.00      0.00      0.00  Pump
  335              13168.31      0.00    -93.35  Pump
   
   
  Node Results at 0:05:00 hrs:
  --------------------------------------------------------
                     Demand      Head  Pressure  Chemical
  Node                  gpm        ft       psi      mg/L
  --------------------------------------------------------
  10                   0.00    144.11     -1.25      0.00
  15                 629.57    123.99     39.86      0.00
  20                   0.00    158.07     12.59      0.00
  35                1292.47    145.67     57.70      0.00
  40                   0.00    145.05      5.70      0.00
  50                   0.00    139.86     10.12      0.00
  60                   0.00    209.00     90.56      0.00
  601                  0.00    302.36    131.01      0.00
  61                   0.00    302.36    131.01      0.00
  101                307.72    144.11     44.24      0.00
  103                215.78    144.09     43.80      0.00
  105                219.30    145.57     50.72      0.00
  107                 88.52    145.57     53.54      0.00
  109                374.87    144.11     53.65      0.00
  111                229.94    145.27     58.61      0.00
  113                 32.42    145.42     62.14      0.00
  115                 84.40    145.96     57.18      0.00
  117                190.69    149.07     58.70      0.00
  119                285.33    157.21     67.25      0.00
  120                  0.00    154.56     66.97      0.00
  121                 67.44    160.75     70.52      0.00
  123                  0.00    165.21     66.82      0.00
  125                 73.87    160.21     64.65      0.00
  127                 28.61    158.70     44.50      0.00
  129                  0.00    158.68     46.66      0.00
  131                 69.25    158.65     66.14      0.00
  139                  9.54    152.40     52.60      0.00
  141                 15.96    147.96     62.38      0.00
  143                 10.04    136.78     61.22      0.00
  145                 44.76    149.16     64.20      0.00
  147                 13.85    150.11     57.03      0.00
  149                 43.85    150.52     58.29      0.00
  151                234.06    154.63     52.48      0.00
  153                 71.56    154.72     38.36      0.00
  157                 83.90    154.80     61.40      0.00
  159                 66.94    151.49     63.04      0.00
  161                 25.60    149.25     62.94      0.00
  163                 15.26    148.81     62.31      0.00
  164                  0.00    148.81     62.31      0.00
  166                  4.21    148.81     65.34      0.00
  167                 23.59    146.98     65.85      0.00
  169                  0.00    146.98     65.86      0.00
  171                 63.73    145.95     64.97      0.00
  173                  0.00    145.93     64.96      0.00
  177                 94.24    145.65     59.64      0.00
  179                  0.00    145.62     59.63      0.00
  181                  0.00    145.68     59.66      0.00
  183                  0.00    145.61     58.33      0.00
  184                  0.00    144.18     55.54      0.00
  185                 41.55    144.73     55.78      0.00
  187                  0.00    145.25     57.52      0.00
  189                174.83    145.70     61.40      0.00
  191                132.68    145.33     52.14      0.00
  193                115.52    145.48     55.24      0.00
  195                  0.00    145.56     56.35      0.00
  197                 27.60    145.30     52.99      0.00
  199                193.30    140.75     61.85      0.00
  201                 72.27    140.05     60.64      0.00
  203               4239.49    139.89     59.75      0.00
  204                  0.00    145.07     53.76      0.00
  205                105.88    140.69     51.86      0.00
  206                  0.00    139.68     60.09      0.00
  207                112.41    139.97     56.75      0.00
  208                  0.00    139.36     53.45      0.00
  209                  1.41    138.80     61.01      0.00
  211                 14.05    138.61     57.03      0.00
  213                 22.58    138.52     56.99      0.00
  215                149.35    138.25     56.87      0.00
  217                 39.24    138.22     57.29      0.00
  219                 66.94    138.20     58.15      0.00
  225                 36.94    138.21     56.42      0.00
  229                103.97    138.39     55.42      0.00
  231                 26.70    138.39     57.80      0.00
  237                 25.29    138.54     53.97      0.00
  239                 72.27    138.55     54.40      0.00
  241                  0.00    138.55     54.40      0.00
  243                  7.03    138.54     53.97      0.00
  247                114.02    138.55     52.23      0.00
  249                  0.00    138.55     52.23      0.00
  251                 39.14    138.57     47.04      0.00
  253                 88.32    138.74     44.52      0.00
  255                 65.43    138.82     48.45      0.00
  257                  0.00    151.19     58.15      0.00
  259                  0.00    150.72     54.47      0.00
  261                  0.00    149.02     64.57      0.00
  263                  0.00    148.84     64.49      0.00
  265                  0.00    147.56     63.94      0.00
  267                  0.00    145.70     54.03      0.00
  269                  0.00    146.23     63.36      0.00
  271                  0.00    145.75     60.56      0.00
  273                  0.00    140.70     57.50      0.00
  275                  0.00    140.04     56.35      0.00
  River           -13166.64    220.00      0.00      0.00  Reservoir
  Lake                 0.00    167.00      0.00      0.00  Reservoir
  1                  407.60    145.05      5.70      0.00  Tank
  2                 -400.09    139.86     10.12      0.00  Tank
  3                 2059.66    158.07     12.59      0.00  Tank
   
   
  Link Results at 0:05:00 hrs:
  ----------------------------------------------
                       Flow  Velocity  Headloss
  Link                  gpm       fps   /1000ft
  ----------------------------------------------
  20               -2059.66      0.09      0.00
  40                -407.60      0.02      0.00
  50                 400.09      0.02      0.00
  60               13166.64      9.34      8.94
  101                  0.00      0.00      0.00
  103                140.24      0.22      0.02
  105               -447.96      1.27      0.57
  107                  0.64      0.00      0.00
  109                -75.54      0.12      0.01
  111               -450.41      1.28      0.58
  112                458.42      1.30      0.60
  113               -166.67      0.47      0.09
  114                102.66      0.66      0.27
  115                -87.87      0.56      0.20
  116                -96.42      0.27      0.03
  117                667.90      1.89      1.20
  119               -733.36      2.08      1.43
  120               1213.90      3.44      3.63
  121               1083.01      3.07      2.94
  122                378.05      2.41      3.01
  123               9934.02      4.51      1.77
  125              13166.64      5.98      2.97
  129               2787.13      1.98      0.58
  131               2483.09      1.76      0.47
  133              -2059.66      2.10      0.80
  135                394.82      0.28      0.02
  137                 69.25      0.11      0.00
  145                325.56      2.08      2.29
  147                316.02      2.02      2.16
  149               -639.61      4.08      7.98
  151               -629.57      4.02      7.75
  153                339.55      0.96      0.34
  155                384.31      1.09      0.43
  159               -398.16      1.13      0.46
  161               -442.01      2.82      4.03
  163               -158.61      0.45      0.08
  169                230.17      1.47      1.20
  171                517.46      1.47      0.75
  173               7917.32      3.59      1.16
  175               7833.42      3.56      1.14
  177               7766.49      3.53      1.12
  179               7471.64      3.39      1.04
  180                  4.21      0.01      0.00
  181                  4.21      0.01      0.00
  183               7224.61      3.28      0.98
  185                -23.59      0.15      0.02
  186                288.26      1.84      1.82
  187               6540.79      2.97      0.81
  189               4670.55      2.12      0.44
  191              -1806.51      1.28      0.26
  193              -1292.47      0.92      0.14
  195                635.09      1.80      1.09
  197                540.86      1.53      0.81
  199                133.26      0.38      0.06
  201               -407.60      1.16      0.48
  202                525.37      3.35      5.55
  203                278.66      1.78      1.71
  204                525.37      1.49      0.77
  205                288.26      0.82      0.25
  207                145.40      0.41      0.07
  209                197.39      1.26      0.90
  211                660.23      1.87      1.17
  213                 90.87      0.26      0.03
  215                -21.55      0.06      0.00
  217               -306.41      0.87      0.28
  219               -269.25      0.76      0.22
  221                269.25      1.72      1.61
  223                -82.86      0.24      0.03
  225                -55.26      0.16      0.01
  229               4670.55      3.31      1.29
  231               4328.13      3.07      1.12
  233               4239.49      3.01      1.26
  235                149.12      0.42      0.07
  237                461.17      1.31      0.60
  238                472.57      1.34      0.63
  239                123.82      0.35      0.05
  240                472.57      1.34      0.63
  241                472.57      1.34      0.63
  243                471.16      0.75      0.15
  245                360.10      0.57      0.09
  247                292.46      0.47      0.06
  249                143.11      0.23      0.02
  251                 66.94      0.14      0.01
  257                 36.94      0.10      0.01
  261                 45.05      0.29      0.06
  263                 26.70      0.08      0.00
  269                 97.02      0.28      0.03
  271                 85.62      0.55      0.19
  273                -13.88      0.04      0.00
  275                -27.94      0.08      0.00
  277                  7.03      0.02      0.00
  281                -34.98      0.14      0.01
  283                -58.21      0.17      0.01
  285                  4.08      0.01      0.00
  287               -153.07      0.63      0.19
  289                400.09      1.63      1.13
  291                 88.32      0.36      0.07
  293                 93.27      0.60      0.23
  295                -54.13      0.15      0.01
  297                508.95      3.25      5.23
  299                244.62      1.56      1.35
  301                244.62      1.56      1.35
  303                264.32      1.69      1.55
  305                158.95      0.45      0.08
  307                423.28      1.20      0.52
  309                227.56      1.45      1.18
  311               -249.11      0.71      0.19
  313                539.18      1.53      0.81
  315              -1927.56      1.37      0.29
  317                107.45      0.69      0.29
  319                 41.68      0.12      0.01
  321               7452.17      3.38      1.04
  323                 16.37      0.05      0.00
  325                121.05      0.77      0.37
  329              13166.64      5.98      3.01
  330                  0.00      0.00      0.00
  333                 -0.00      0.00      0.00
  10                   0.00      0.00      0.00  Pump
  335              13166.64      0.00    -93.37  Pump
   
   
  Node Results at 0:10:00 hrs:
  --------------------------------------------------------
                     Demand      Head  Pressure  Chemical
  Node                  gpm        ft       psi      mg/L
  --------------------------------------------------------
  10                   0.00    144.15     -1.24      0.00
  15                 629.57    124.04     39.88      0.00
  20                   0.00    158.13     12.62      0.00
  35                1292.47    145.71     57.72      0.00
  40                   0.00    145.10      5.72      0.00
  50                   0.00    139.72     10.06      0.00
  60                   0.00    209.00     90.56      0.00
  601                  0.00    302.38    131.02      0.00
  61                   0.00    302.38    131.02      0.00
  101                307.72    144.15     44.26      0.00
  103                215.78    144.13     43.82      0.00
  105                219.30    145.60     50.74      0.00
  107                 88.52    145.60     53.56      0.00
  109                374.87    144.15     53.66      0.00
  111                229.94    145.30     58.63      0.00
  113                 32.42    145.46     62.16      0.00
  115                 84.40    146.00     57.19      0.00
  117                190.69    149.11     58.72      0.00
  119                285.33    157.26     67.27      0.00
  120                  0.00    154.61     66.99      0.00
  121                 67.44    160.80     70.54      0.00
  123                  0.00    165.26     66.84      0.00
  125                 73.87    160.26     64.67      0.00
  127                 28.61    158.76     44.52      0.00
  129                  0.00    158.74     46.68      0.00
  131                 69.25    158.71     66.17      0.00
  139                  9.54    152.45     52.63      0.00
  141                 15.96    148.01     62.40      0.00
  143                 10.04    136.84     61.24      0.00
  145                 44.76    149.22     64.22      0.00
  147                 13.85    150.16     57.05      0.00
  149                 43.85    150.57     58.31      0.00
  151                234.06    154.67     52.50      0.00
  153                 71.56    154.77     38.38      0.00
  157                 83.90    154.85     61.42      0.00
  159                 66.94    151.53     63.06      0.00
  161                 25.60    149.29     62.96      0.00
  163                 15.26    148.84     62.33      0.00
  164                  0.00    148.84     62.33      0.00
  166                  4.21    148.84     65.36      0.00
  167                 23.59    147.02     65.87      0.00
  169                  0.00    147.02     65.87      0.00
  171                 63.73    145.98     64.99      0.00
  173                  0.00    145.96     64.98      0.00
  177                 94.24    145.68     59.66      0.00
  179                  0.00    145.66     59.65      0.00
  181                  0.00    145.71     59.67      0.00
  183                  0.00    145.64     58.34      0.00
  184                  0.00    144.21     55.55      0.00
  185                 41.55    144.77     55.79      0.00
  187                  0.00    145.29     57.54      0.00
  189                174.83    145.74     61.42      0.00
  191                132.68    145.36     52.15      0.00
  193                115.52    145.51     55.25      0.00
  195                  0.00    145.59     56.37      0.00
  197                 27.60    145.34     53.01      0.00
  199                193.30    140.77     61.86      0.00
  201                 72.27    140.06     60.64      0.00
  203               4239.49    139.91     59.76      0.00
  204                  0.00    145.10     53.77      0.00
  205                105.88    140.71     51.87      0.00
  206                  0.00    139.68     60.09      0.00
  207                112.41    139.97     56.75      0.00
  208                  0.00    139.34     53.44      0.00
  209                  1.41    138.76     60.99      0.00
  211                 14.05    138.56     57.01      0.00
  213                 22.58    138.47     56.97      0.00
  215                149.35    138.19     56.85      0.00
  217                 39.24    138.17     57.27      0.00
  219                 66.94    138.15     58.13      0.00
  225                 36.94    138.16     56.40      0.00
  229                103.97    138.33     55.39      0.00
  231                 26.70    138.33     57.77      0.00
  237                 25.29    138.48     53.94      0.00
  239                 72.27    138.48     54.37      0.00
  241                  0.00    138.48     54.37      0.00
  243                  7.03    138.48     53.94      0.00
  247                114.02    138.48     52.21      0.00
  249                  0.00    138.48     52.21      0.00
  251                 39.14    138.50     47.01      0.00
  253                 88.32    138.65     44.48      0.00
  255                 65.43    138.73     48.41      0.00
  257                  0.00    151.23     58.16      0.00
  259                  0.00    150.76     54.49      0.00
  261                  0.00    149.06     64.59      0.00
  263                  0.00    148.88     64.51      0.00
  265                  0.00    147.60     63.95      0.00
  267                  0.00    145.74     54.05      0.00
  269                  0.00    146.26     63.37      0.00
  271                  0.00    145.79     60.57      0.00
  273                  0.00    140.71     57.50      0.00
  275                  0.00    140.06     56.35      0.00
  River           -13164.97    220.00      0.00      0.00  Reservoir
  Lake                 0.00    167.00      0.00      0.00  Reservoir
  1                  402.80    145.10      5.72      0.00  Tank
  2                 -389.69    139.72     10.06      0.00  Tank
  3                 2052.39    158.13     12.62      0.00  Tank
   
   
  Link Results at 0:10:00 hrs:
  ----------------------------------------------
                       Flow  Velocity  Headloss
  Link                  gpm       fps   /1000ft
  ----------------------------------------------
  20               -2052.39      0.09      0.00
  40                -402.80      0.02      0.00
  50                 389.69      0.02      0.00
  60               13164.97      9.34      8.94
  101                  0.00      0.00      0.00
  103                140.41      0.22      0.02
  105               -448.12      1.27      0.57
  107                  0.74      0.00      0.00
  109                -75.38      0.12      0.01
  111               -450.25      1.28      0.58
  112                458.81      1.30      0.60
  113               -166.52      0.47      0.09
  114                102.80      0.66      0.27
  115                -87.78      0.56      0.20
  116                -96.14      0.27      0.03
  117                668.16      1.90      1.20
  119               -733.79      2.08      1.43
  120               1214.41      3.45      3.63
  121               1083.47      3.07      2.94
  122                378.23      2.41      3.02
  123               9939.22      4.51      1.77
  125              13164.97      5.98      2.97
  129               2780.08      1.97      0.58
  131               2475.95      1.76      0.46
  133              -2052.39      2.10      0.80
  135                394.95      0.28      0.02
  137                 69.25      0.11      0.00
  145                325.69      2.08      2.29
  147                316.15      2.02      2.16
  149               -639.61      4.08      7.98
  151               -629.57      4.02      7.75
  153                339.42      0.96      0.34
  155                384.18      1.09      0.43
  159               -398.03      1.13      0.46
  161               -441.88      2.82      4.02
  163               -158.70      0.45      0.08
  169                230.25      1.47      1.20
  171                517.24      1.47      0.75
  173               7922.24      3.60      1.16
  175               7838.34      3.56      1.14
  177               7771.40      3.53      1.12
  179               7476.47      3.39      1.04
  180                  4.21      0.01      0.00
  181                  4.21      0.01      0.00
  183               7229.41      3.28      0.98
  185                -23.59      0.15      0.02
  186                289.02      1.84      1.83
  187               6545.63      2.97      0.82
  189               4679.63      2.12      0.44
  191              -1802.27      1.28      0.26
  193              -1292.47      0.92      0.14
  195                630.94      1.79      1.08
  197                536.70      1.52      0.80
  199                133.91      0.38      0.06
  201               -402.80      1.14      0.47
  202                526.69      3.36      5.57
  203                279.23      1.78      1.72
  204                526.69      1.49      0.77
  205                289.02      0.82      0.25
  207                145.33      0.41      0.07
  209                197.56      1.26      0.91
  211                660.20      1.87      1.17
  213                 91.46      0.26      0.03
  215                -21.34      0.06      0.00
  217               -306.60      0.87      0.28
  219               -269.33      0.76      0.22
  221                269.33      1.72      1.61
  223                -82.46      0.23      0.02
  225                -54.86      0.16      0.01
  229               4679.63      3.32      1.30
  231               4335.26      3.07      1.13
  233               4239.49      3.01      1.26
  235                151.07      0.43      0.08
  237                464.33      1.32      0.61
  238                482.97      1.37      0.66
  239                131.06      0.37      0.06
  240                482.97      1.37      0.66
  241                482.97      1.37      0.66
  243                481.56      0.77      0.16
  245                361.47      0.58      0.09
  247                292.46      0.47      0.06
  249                143.11      0.23      0.02
  251                 66.94      0.14      0.01
  257                 36.94      0.10      0.01
  261                 46.43      0.30      0.06
  263                 26.70      0.08      0.00
  269                106.04      0.30      0.04
  271                 84.24      0.54      0.19
  273                 -3.48      0.01      0.00
  275                -24.05      0.07      0.00
  277                  7.03      0.02      0.00
  281                -31.08      0.13      0.01
  283                -51.70      0.15      0.01
  285                  1.40      0.00      0.00
  287               -146.50      0.60      0.18
  289                389.69      1.59      1.08
  291                 88.32      0.36      0.07
  293                 89.43      0.57      0.21
  295                -50.30      0.14      0.01
  297                509.17      3.25      5.23
  299                244.73      1.56      1.35
  301                244.73      1.56      1.35
  303                264.44      1.69      1.56
  305                159.00      0.45      0.08
  307                423.43      1.20      0.52
  309                227.59      1.45      1.18
  311               -248.93      0.71      0.19
  313                539.06      1.53      0.81
  315              -1923.41      1.36      0.29
  317                107.55      0.69      0.29
  319                 43.51      0.12      0.01
  321               7457.00      3.38      1.04
  323                 23.50      0.07      0.00
  325                121.14      0.77      0.37
  329              13164.97      5.98      3.01
  330                  0.00      0.00      0.00
  333                 -0.00      0.00      0.00
  10                   0.00      0.00      0.00  Pump
  335              13164.97      0.00    -93.38  Pump
   
   
  Node Results at 0:15:00 hrs:
  --------------------------------------------------------
                     Demand      Head  Pressure  Chemical
  Node                  gpm        ft       psi      mg/L
  --------------------------------------------------------
  10                   0.00    144.18     -1.22      0.00
  15                 629.57    124.10     39.91      0.00
  20                   0.00    158.20     12.65      0.00
  35                1292.47    145.74     57.73      0.00
  40                   0.00    145.14      5.74      0.00
  50                   0.00    139.59     10.01      0.00
  60                   0.00    209.00     90.56      0.00
  601                  0.00    302.40    131.03      0.00
  61                   0.00    302.40    131.03      0.00
  101                307.72    144.18     44.28      0.00
  103                215.78    144.16     43.83      0.00
  105                219.30    145.64     50.76      0.00
  107                 88.52    145.64     53.57      0.00
  109                374.87    144.18     53.68      0.00
  111                229.94    145.34     58.64      0.00
  113                 32.42    145.49     62.18      0.00
  115                 84.40    146.03     57.21      0.00
  117                190.69    149.15     58.73      0.00
  119                285.33    157.31     67.30      0.00
  120                  0.00    154.65     67.01      0.00
  121                 67.44    160.85     70.56      0.00
  123                  0.00    165.31     66.86      0.00
  125                 73.87    160.31     64.70      0.00
  127                 28.61    158.82     44.55      0.00
  129                  0.00    158.80     46.71      0.00
  131                 69.25    158.77     66.20      0.00
  139                  9.54    152.51     52.65      0.00
  141                 15.96    148.07     62.42      0.00
  143                 10.04    136.89     61.26      0.00
  145                 44.76    149.27     64.24      0.00
  147                 13.85    150.22     57.07      0.00
  149                 43.85    150.62     58.33      0.00
  151                234.06    154.72     52.53      0.00
  153                 71.56    154.82     38.40      0.00
  157                 83.90    154.89     61.44      0.00
  159                 66.94    151.57     63.08      0.00
  161                 25.60    149.33     62.97      0.00
  163                 15.26    148.88     62.34      0.00
  164                  0.00    148.88     62.34      0.00
  166                  4.21    148.88     65.38      0.00
  167                 23.59    147.05     65.89      0.00
  169                  0.00    147.06     65.89      0.00
  171                 63.73    146.02     65.00      0.00
  173                  0.00    146.00     64.99      0.00
  177                 94.24    145.72     59.67      0.00
  179                  0.00    145.69     59.66      0.00
  181                  0.00    145.75     59.69      0.00
  183                  0.00    145.68     58.36      0.00
  184                  0.00    144.24     55.57      0.00
  185                 41.55    144.80     55.81      0.00
  187                  0.00    145.32     57.55      0.00
  189                174.83    145.78     61.43      0.00
  191                132.68    145.40     52.17      0.00
  193                115.52    145.55     55.27      0.00
  195                  0.00    145.63     56.38      0.00
  197                 27.60    145.37     53.02      0.00
  199                193.30    140.78     61.87      0.00
  201                 72.27    140.07     60.65      0.00
  203               4239.49    139.92     59.76      0.00
  204                  0.00    145.14     53.79      0.00
  205                105.88    140.72     51.88      0.00
  206                  0.00    139.67     60.09      0.00
  207                112.41    139.98     56.75      0.00
  208                  0.00    139.32     53.43      0.00
  209                  1.41    138.71     60.97      0.00
  211                 14.05    138.51     56.98      0.00
  213                 22.58    138.42     56.94      0.00
  215                149.35    138.14     56.82      0.00
  217                 39.24    138.11     57.25      0.00
  219                 66.94    138.10     58.10      0.00
  225                 36.94    138.11     56.37      0.00
  229                103.97    138.27     55.36      0.00
  231                 26.70    138.27     57.74      0.00
  237                 25.29    138.42     53.91      0.00
  239                 72.27    138.42     54.34      0.00
  241                  0.00    138.42     54.34      0.00
  243                  7.03    138.42     53.91      0.00
  247                114.02    138.42     52.18      0.00
  249                  0.00    138.42     52.18      0.00
  251                 39.14    138.43     46.98      0.00
  253                 88.32    138.57     44.44      0.00
  255                 65.43    138.64     48.38      0.00
  257                  0.00    151.28     58.18      0.00
  259                  0.00    150.81     54.51      0.00
  261                  0.00    149.10     64.60      0.00
  263                  0.00    148.92     64.53      0.00
  265                  0.00    147.63     63.97      0.00
  267                  0.00    145.77     54.06      0.00
  269                  0.00    146.30     63.39      0.00
  271                  0.00    145.82     60.59      0.00
  273                  0.00    140.73     57.51      0.00
  275                  0.00    140.07     56.36      0.00
  River           -13163.30    220.00      0.00      0.00  Reservoir
  Lake                 0.00    167.00      0.00      0.00  Reservoir
  1                  398.16    145.14      5.74      0.00  Tank
  2                 -379.50    139.59     10.01      0.00  Tank
  3                 2045.18    158.20     12.65      0.00  Tank
   
   
  Link Results at 0:15:00 hrs:
  ----------------------------------------------
                       Flow  Velocity  Headloss
  Link                  gpm       fps   /1000ft
  ----------------------------------------------
  20               -2045.18      0.09      0.00
  40                -398.16      0.02      0.00
  50                 379.50      0.02      0.00
  60               13163.30      9.34      8.93
  101                  0.00      0.00      0.00
  103                140.57      0.22      0.02
  105               -448.29      1.27      0.57
  107                  0.84      0.00      0.00
  109                -75.22      0.12      0.01
  111               -450.08      1.28      0.58
  112                459.19      1.30      0.60
  113               -166.38      0.47      0.09
  114                102.93      0.66      0.27
  115                -87.68      0.56      0.20
  116                -95.86      0.27      0.03
  117                668.42      1.90      1.20
  119               -734.21      2.08      1.43
  120               1214.91      3.45      3.63
  121               1083.94      3.07      2.94
  122                378.41      2.42      3.02
  123               9944.37      4.51      1.77
  125              13163.30      5.97      2.97
  129               2773.08      1.97      0.57
  131               2468.87      1.75      0.46
  133              -2045.18      2.09      0.79
  135                395.08      0.28      0.02
  137                 69.25      0.11      0.00
  145                325.82      2.08      2.29
  147                316.28      2.02      2.17
  149               -639.61      4.08      7.98
  151               -629.57      4.02      7.75
  153                339.29      0.96      0.34
  155                384.05      1.09      0.43
  159               -397.90      1.13      0.46
  161               -441.75      2.82      4.02
  163               -158.78      0.45      0.08
  169                230.34      1.47      1.20
  171                517.03      1.47      0.75
  173               7927.11      3.60      1.16
  175               7843.21      3.56      1.14
  177               7776.27      3.53      1.12
  179               7481.26      3.40      1.04
  180                  4.21      0.01      0.00
  181                  4.21      0.01      0.00
  183               7234.17      3.28      0.98
  185                -23.59      0.15      0.02
  186                289.76      1.85      1.84
  187               6550.41      2.97      0.82
  189               4688.52      2.13      0.44
  191              -1798.16      1.28      0.26
  193              -1292.47      0.92      0.14
  195                626.92      1.78      1.07
  197                532.69      1.51      0.79
  199                134.53      0.38      0.06
  201               -398.16      1.13      0.46
  202                527.99      3.37      5.60
  203                279.79      1.79      1.73
  204                527.99      1.50      0.78
  205                289.76      0.82      0.26
  207                145.26      0.41      0.07
  209                197.73      1.26      0.91
  211                660.18      1.87      1.17
  213                 92.03      0.26      0.03
  215                -21.13      0.06      0.00
  217               -306.77      0.87      0.28
  219               -269.41      0.76      0.22
  221                269.41      1.72      1.61
  223                -82.06      0.23      0.02
  225                -54.46      0.15      0.01
  229               4688.52      3.33      1.30
  231               4342.17      3.08      1.13
  233               4239.49      3.01      1.26
  235                153.04      0.43      0.08
  237                467.50      1.33      0.62
  238                493.16      1.40      0.68
  239                138.07      0.39      0.06
  240                493.16      1.40      0.68
  241                493.16      1.40      0.68
  243                491.75      0.78      0.17
  245                362.89      0.58      0.10
  247                292.46      0.47      0.06
  249                143.11      0.23      0.02
  251                 66.94      0.14      0.01
  257                 36.94      0.10      0.01
  261                 47.85      0.31      0.07
  263                 26.70      0.08      0.00
  269                114.81      0.33      0.05
  271                 82.82      0.53      0.18
  273                  6.71      0.02      0.00
  275                -20.24      0.06      0.00
  277                  7.03      0.02      0.00
  281                -27.27      0.11      0.01
  283                -45.32      0.13      0.01
  285                 -1.22      0.00      0.00
  287               -140.07      0.57      0.16
  289                379.50      1.55      1.02
  291                 88.32      0.36      0.07
  293                 85.68      0.55      0.19
  295                -46.54      0.13      0.01
  297                509.38      3.25      5.24
  299                244.83      1.56      1.35
  301                244.83      1.56      1.35
  303                264.55      1.69      1.56
  305                159.04      0.45      0.08
  307                423.59      1.20      0.52
  309                227.62      1.45      1.18
  311               -248.75      0.71      0.19
  313                538.95      1.53      0.81
  315              -1919.39      1.36      0.29
  317                107.66      0.69      0.29
  319                 45.39      0.13      0.01
  321               7461.79      3.39      1.04
  323                 30.41      0.09      0.00
  325                121.23      0.77      0.37
  329              13163.30      5.97      3.01
  330                  0.00      0.00      0.00
  333                 -0.00      0.00      0.00
  10                   0.00      0.00      0.00  Pump
  335              13163.30      0.00    -93.40  Pump
   
   
  Node Results at 0:20:00 hrs:
  --------------------------------------------------------
                     Demand      Head  Pressure  Chemical
  Node                  gpm        ft       psi      mg/L
  --------------------------------------------------------
  10                   0.00    144.22     -1.20      0.00
  15                 629.57    124.15     39.93      0.00
  20                   0.00    158.26     12.68      0.00
  35                1292.47    145.78     57.75      0.00
  40                   0.00    145.19      5.76      0.00
  50                   0.00    139.46      9.95      0.00
  60                   0.00    209.00     90.56      0.00
  601                  0.00    302.41    131.04      0.00
  61                   0.00    302.41    131.04      0.00
  101                307.72    144.22     44.29      0.00
  103                215.78    144.20     43.85      0.00
  105                219.30    145.68     50.77      0.00
  107                 88.52    145.68     53.59      0.00
  109                374.87    144.22     53.69      0.00
  111                229.94    145.38     58.66      0.00
  113                 32.42    145.53     62.19      0.00
  115                 84.40    146.07     57.23      0.00
  117                190.69    149.19     58.75      0.00
  119                285.33    157.36     67.32      0.00
  120                  0.00    154.70     67.03      0.00
  121                 67.44    160.90     70.58      0.00
  123                  0.00    165.36     66.88      0.00
  125                 73.87    160.37     64.72      0.00
  127                 28.61    158.88     44.58      0.00
  129                  0.00    158.86     46.74      0.00
  131                 69.25    158.84     66.22      0.00
  139                  9.54    152.56     52.67      0.00
  141                 15.96    148.12     62.45      0.00
  143                 10.04    136.94     61.29      0.00
  145                 44.76    149.32     64.27      0.00
  147                 13.85    150.27     57.09      0.00
  149                 43.85    150.67     58.35      0.00
  151                234.06    154.77     52.55      0.00
  153                 71.56    154.87     38.42      0.00
  157                 83.90    154.93     61.46      0.00
  159                 66.94    151.61     63.09      0.00
  161                 25.60    149.37     62.99      0.00
  163                 15.26    148.92     62.36      0.00
  164                  0.00    148.92     62.36      0.00
  166                  4.21    148.92     65.39      0.00
  167                 23.59    147.09     65.90      0.00
  169                  0.00    147.09     65.90      0.00
  171                 63.73    146.05     65.02      0.00
  173                  0.00    146.03     65.01      0.00
  177                 94.24    145.75     59.69      0.00
  179                  0.00    145.73     59.68      0.00
  181                  0.00    145.78     59.70      0.00
  183                  0.00    145.71     58.37      0.00
  184                  0.00    144.27     55.58      0.00
  185                 41.55    144.83     55.82      0.00
  187                  0.00    145.36     57.57      0.00
  189                174.83    145.81     61.45      0.00
  191                132.68    145.44     52.18      0.00
  193                115.52    145.58     55.28      0.00
  195                  0.00    145.66     56.40      0.00
  197                 27.60    145.41     53.04      0.00
  199                193.30    140.80     61.87      0.00
  201                 72.27    140.08     60.66      0.00
  203               4239.49    139.93     59.77      0.00
  204                  0.00    145.17     53.80      0.00
  205                105.88    140.74     51.88      0.00
  206                  0.00    139.66     60.08      0.00
  207                112.41    139.98     56.75      0.00
  208                  0.00    139.30     53.43      0.00
  209                  1.41    138.67     60.95      0.00
  211                 14.05    138.46     56.96      0.00
  213                 22.58    138.37     56.92      0.00
  215                149.35    138.09     56.80      0.00
  217                 39.24    138.06     57.22      0.00
  219                 66.94    138.05     58.08      0.00
  225                 36.94    138.05     56.35      0.00
  229                103.97    138.21     55.34      0.00
  231                 26.70    138.21     57.72      0.00
  237                 25.29    138.35     53.88      0.00
  239                 72.27    138.35     54.31      0.00
  241                  0.00    138.35     54.31      0.00
  243                  7.03    138.35     53.88      0.00
  247                114.02    138.35     52.15      0.00
  249                  0.00    138.35     52.15      0.00
  251                 39.14    138.36     46.95      0.00
  253                 88.32    138.48     44.41      0.00
  255                 65.43    138.56     48.34      0.00
  257                  0.00    151.32     58.20      0.00
  259                  0.00    150.85     54.53      0.00
  261                  0.00    149.14     64.62      0.00
  263                  0.00    148.96     64.54      0.00
  265                  0.00    147.67     63.99      0.00
  267                  0.00    145.81     54.08      0.00
  269                  0.00    146.33     63.41      0.00
  271                  0.00    145.86     60.60      0.00
  273                  0.00    140.74     57.52      0.00
  275                  0.00    140.08     56.37      0.00
  River           -13161.64    220.00      0.00      0.00  Reservoir
  Lake                 0.00    167.00      0.00      0.00  Reservoir
  1                  393.70    145.19      5.76      0.00  Tank
  2                 -369.56    139.46      9.95      0.00  Tank
  3                 2038.02    158.26     12.68      0.00  Tank
   
   
  Link Results at 0:20:00 hrs:
  ----------------------------------------------
                       Flow  Velocity  Headloss
  Link                  gpm       fps   /1000ft
  ----------------------------------------------
  20               -2038.02      0.08      0.00
  40                -393.70      0.02      0.00
  50                 369.56      0.02      0.00
  60               13161.64      9.33      8.93
  101                  0.00      0.00      0.00
  103                140.73      0.22      0.02
  105               -448.45      1.27      0.57
  107                  0.93      0.00      0.00
  109                -75.06      0.12      0.01
  111               -449.92      1.28      0.58
  112                459.57      1.30      0.60
  113               -166.24      0.47      0.09
  114                103.07      0.66      0.27
  115                -87.58      0.56      0.20
  116                -95.59      0.27      0.03
  117                668.68      1.90      1.20
  119               -734.62      2.08      1.43
  120               1215.40      3.45      3.64
  121               1084.39      3.08      2.94
  122                378.59      2.42      3.02
  123               9949.48      4.52      1.77
  125              13161.64      5.97      2.97
  129               2766.14      1.96      0.57
  131               2461.84      1.75      0.46
  133              -2038.02      2.08      0.79
  135                395.21      0.28      0.02
  137                 69.25      0.11      0.00
  145                325.95      2.08      2.29
  147                316.41      2.02      2.17
  149               -639.61      4.08      7.98
  151               -629.57      4.02      7.75
  153                339.16      0.96      0.34
  155                383.92      1.09      0.43
  159               -397.77      1.13      0.46
  161               -441.63      2.82      4.02
  163               -158.87      0.45      0.08
  169                230.42      1.47      1.21
  171                516.82      1.47      0.75
  173               7931.93      3.60      1.16
  175               7848.03      3.56      1.14
  177               7781.09      3.53      1.12
  179               7486.00      3.40      1.05
  180                  4.21      0.01      0.00
  181                  4.21      0.01      0.00
  183               7238.88      3.29      0.98
  185                -23.59      0.15      0.02
  186                290.49      1.85      1.85
  187               6555.13      2.98      0.82
  189               4697.19      2.13      0.44
  191              -1794.21      1.27      0.26
  193              -1292.47      0.92      0.14
  195                623.05      1.77      1.05
  197                528.82      1.50      0.78
  199                135.12      0.38      0.06
  201               -393.70      1.12      0.45
  202                529.27      3.38      5.62
  203                280.33      1.79      1.73
  204                529.27      1.50      0.78
  205                290.49      0.82      0.26
  207                145.22      0.41      0.07
  209                197.89      1.26      0.91
  211                660.16      1.87      1.17
  213                 92.60      0.26      0.03
  215                -20.91      0.06      0.00
  217               -306.94      0.87      0.28
  219               -269.49      0.76      0.22
  221                269.49      1.72      1.61
  223                -81.66      0.23      0.02
  225                -54.06      0.15      0.01
  229               4697.19      3.33      1.31
  231               4348.85      3.08      1.13
  233               4239.49      3.01      1.26
  235                155.04      0.44      0.08
  237                470.66      1.34      0.63
  238                503.11      1.43      0.71
  239                144.85      0.41      0.07
  240                503.11      1.43      0.71
  241                503.11      1.43      0.71
  243                501.70      0.80      0.17
  245                364.34      0.58      0.10
  247                292.46      0.47      0.06
  249                143.11      0.23      0.02
  251                 66.94      0.14      0.01
  257                 36.94      0.10      0.01
  261                 49.30      0.31      0.07
  263                 26.70      0.08      0.00
  269                123.31      0.35      0.05
  271                 81.37      0.52      0.18
  273                 16.65      0.05      0.00
  275                -16.51      0.05      0.00
  277                  7.03      0.02      0.00
  281                -23.55      0.10      0.01
  283                -39.10      0.11      0.01
  285                 -3.77      0.01      0.00
  287               -133.79      0.55      0.15
  289                369.56      1.51      0.97
  291                 88.32      0.36      0.07
  293                 82.01      0.52      0.18
  295                -42.87      0.12      0.01
  297                509.60      3.25      5.24
  299                244.93      1.56      1.35
  301                244.93      1.56      1.35
  303                264.66      1.69      1.56
  305                159.08      0.45      0.08
  307                423.74      1.20      0.52
  309                227.65      1.45      1.18
  311               -248.56      0.71      0.19
  313                538.85      1.53      0.81
  315              -1915.52      1.36      0.29
  317                107.76      0.69      0.29
  319                 47.28      0.13      0.01
  321               7466.53      3.39      1.04
  323                 37.09      0.11      0.01
  325                121.31      0.77      0.37
  329              13161.64      5.97      3.01
  330                  0.00      0.00      0.00
  333                 -0.00      0.00      0.00
  10                   0.00      0.00      0.00  Pump
  335              13161.64      0.00    -93.41  Pump
   
   
  Node Results at 0:25:00 hrs:
  --------------------------------------------------------
                     Demand      Head  Pressure  Chemical
  Node                  gpm        ft       psi      mg/L
  --------------------------------------------------------
  10                   0.00    144.26     -1.19      0.00
  15                 629.57    124.20     39.95      0.00
  20                   0.00    158.32     12.71      0.00
  35                1292.47    145.81     57.76      0.00
  40                   0.00    145.24      5.78      0.00
  50                   0.00    139.34      9.89      0.00
  60                   0.00    209.01     90.56      0.00
  601                  0.00    302.43    131.04      0.00
  61                   0.00    302.43    131.04      0.00
  101                307.72    144.26     44.31      0.00
  103                215.78    144.24     43.87      0.00
  105                219.30    145.72     50.79      0.00
  107                 88.52    145.72     53.61      0.00
  109                374.87    144.26     53.71      0.00
  111                229.94    145.41     58.67      0.00
  113                 32.42    145.56     62.21      0.00
  115                 84.40    146.11     57.24      0.00
  117                190.69    149.23     58.77      0.00
  119                285.33    157.40     67.34      0.00
  120                  0.00    154.74     67.05      0.00
  121                 67.44    160.95     70.60      0.00
  123                  0.00    165.41     66.90      0.00
  125                 73.87    160.42     64.74      0.00
  127                 28.61    158.94     44.60      0.00
  129                  0.00    158.92     46.76      0.00
  131                 69.25    158.90     66.25      0.00
  139                  9.54    152.62     52.70      0.00
  141                 15.96    148.17     62.47      0.00
  143                 10.04    136.99     61.31      0.00
  145                 44.76    149.37     64.29      0.00
  147                 13.85    150.32     57.12      0.00
  149                 43.85    150.72     58.38      0.00
  151                234.06    154.82     52.57      0.00
  153                 71.56    154.92     38.44      0.00
  157                 83.90    154.98     61.48      0.00
  159                 66.94    151.65     63.11      0.00
  161                 25.60    149.41     63.00      0.00
  163                 15.26    148.96     62.38      0.00
  164                  0.00    148.96     62.38      0.00
  166                  4.21    148.96     65.41      0.00
  167                 23.59    147.12     65.92      0.00
  169                  0.00    147.13     65.92      0.00
  171                 63.73    146.09     65.03      0.00
  173                  0.00    146.06     65.02      0.00
  177                 94.24    145.79     59.70      0.00
  179                  0.00    145.76     59.69      0.00
  181                  0.00    145.82     59.72      0.00
  183                  0.00    145.75     58.39      0.00
  184                  0.00    144.30     55.59      0.00
  185                 41.55    144.86     55.84      0.00
  187                  0.00    145.39     57.58      0.00
  189                174.83    145.85     61.46      0.00
  191                132.68    145.47     52.20      0.00
  193                115.52    145.62     55.30      0.00
  195                  0.00    145.70     56.42      0.00
  197                 27.60    145.44     53.05      0.00
  199                193.30    140.82     61.88      0.00
  201                 72.27    140.10     60.66      0.00
  203               4239.49    139.95     59.77      0.00
  204                  0.00    145.21     53.82      0.00
  205                105.88    140.75     51.89      0.00
  206                  0.00    139.66     60.08      0.00
  207                112.41    139.99     56.76      0.00
  208                  0.00    139.28     53.42      0.00
[...]
  219                 61.98    139.68     58.79      0.00
  225                 34.20    139.69     57.06      0.00
  229                 96.27    139.81     56.03      0.00
  231                 24.72    139.80     58.41      0.00
  237                 23.42    139.92     54.56      0.00
  239                 66.92    139.91     54.99      0.00
  241                  0.00    139.91     54.99      0.00
  243                  6.51    139.91     54.56      0.00
  247                105.57    139.91     52.82      0.02
  249                  0.00    139.91     52.82      0.67
  251                 36.24    139.92     47.63      0.00
  253                 81.78    139.99     45.06      0.00
  255                 60.58    140.05     48.99      0.00
  257                  0.00    152.81     58.85      0.00
  259                  0.00    152.39     55.20      0.00
  261                  0.00    150.87     65.37      0.00
  263                  0.00    150.71     65.30      0.00
  265                  0.00    149.45     64.76      0.00
  267                  0.00    147.87     54.97      0.00
  269                  0.00    148.30     64.26      0.00
  271                  0.00    147.88     61.48      0.00
  273                  0.00    142.29     58.19      0.00
  275                  0.00    141.55     57.00      0.00
  River           -13180.48    220.00      0.00      0.00  Reservoir
  Lake                 0.00    167.00      0.00      0.00  Reservoir
  1                 -402.78    148.41      7.15      0.00  Tank
  2                 -318.02    140.74     10.50      0.00  Tank
  3                 1257.73    160.09     13.47      0.00  Tank
   
   
  Link Results at 23:55:00 hrs:
  ----------------------------------------------
                       Flow  Velocity  Headloss
  Link                  gpm       fps   /1000ft
  ----------------------------------------------
  20               -1257.73      0.05      0.00
  40                 402.78      0.02      0.00
  50                 318.02      0.01      0.00
  60               13180.48      9.35      8.96
  101                  0.00      0.00      0.00
  103                134.75      0.22      0.02
  105               -419.68      1.19      0.51
  107                  3.49      0.01      0.00
  109                -65.05      0.10      0.00
  111               -412.15      1.17      0.49
  112                436.08      1.24      0.54
  113               -151.46      0.43      0.08
  114                 98.88      0.63      0.25
  115                -78.47      0.50      0.16
  116                -82.60      0.23      0.03
  117                626.22      1.78      1.07
  119               -691.59      1.96      1.28
  120               1140.31      3.23      3.23
  121               1016.64      2.88      2.61
  122                354.06      2.26      2.67
  123               9282.71      4.21      1.56
  125              11576.39      5.25      2.34
  129               1877.16      1.33      0.28
  131               1606.66      1.14      0.21
  133              -1257.73      1.28      0.32
  135                322.44      0.23      0.01
  137                 64.13      0.10      0.00
  145                258.31      1.65      1.49
  147                249.48      1.59      1.40
  149               -448.28      2.86      4.13
  151               -438.98      2.80      3.98
  153                213.58      0.61      0.15
  155                255.02      0.72      0.20
  159               -267.85      0.76      0.22
  161               -308.45      1.97      2.07
  163               -135.85      0.39      0.06
  169                202.11      1.29      0.95
  171                389.32      1.10      0.44
  173               7488.89      3.40      1.05
  175               7411.21      3.36      1.03
  177               7349.23      3.34      1.01
  179               7074.63      3.21      0.94
  180                  3.90      0.01      0.00
  181                  3.90      0.01      0.00
  183               6847.84      3.11      0.89
  185                -21.84      0.14      0.02
  186                304.69      1.94      2.02
  187               6228.08      2.83      0.74
  189               4886.38      2.22      0.47
  191              -1282.69      0.91      0.14
  193              -1518.89      1.08      0.19
  195               -122.96      0.35      0.05
  197               -210.21      0.60      0.14
  199                192.57      0.55      0.12
  201                402.78      1.14      0.47
  202                561.06      3.58      6.26
  203                294.85      1.88      1.90
  204                561.06      1.59      0.87
  205                304.69      0.86      0.28
  207                102.27      0.29      0.04
  209                196.05      1.25      0.89
  211                597.92      1.70      0.98
  213                108.65      0.31      0.04
  215                -24.47      0.07      0.00
  217               -294.57      0.84      0.26
  219               -250.89      0.71      0.20
  221                250.89      1.60      1.41
  223                -63.07      0.18      0.02
  225                -37.51      0.11      0.01
  229               4886.38      3.47      1.41
  231               4570.94      3.24      1.24
  233               4509.43      3.20      1.41
  235                136.46      0.39      0.06
  237                484.87      1.38      0.66
  238                490.00      1.39      0.68
  239                109.21      0.31      0.04
  240                490.00      1.39      0.68
  241                490.00      1.39      0.68
  243                488.69      0.78      0.17
  245                341.14      0.54      0.09
  247                270.80      0.43      0.06
  249                132.51      0.21      0.01
  251                 61.98      0.13      0.01
  257                 34.20      0.10      0.00
  261                 49.44      0.32      0.07
  263                 24.72      0.07      0.00
  269                134.55      0.38      0.06
  271                 71.55      0.46      0.14
  273                 39.58      0.11      0.01
  275                 -6.22      0.02      0.00
  277                  6.51      0.02      0.00
  281                -12.73      0.05      0.00
  283                -21.11      0.06      0.00
  285                 -9.65      0.03      0.00
  287               -108.65      0.44      0.10
  289                318.02      1.30      0.74
  291                 81.78      0.33      0.06
  293                 67.00      0.43      0.12
  295                -30.76      0.09      0.00
  297                477.73      3.05      4.65
  299                229.60      1.47      1.20
  301                229.60      1.47      1.20
  303                248.13      1.58      1.38
  305                148.49      0.42      0.07
  307                396.62      1.13      0.46
  309                208.77      1.33      1.00
  311               -233.24      0.66      0.17
  313                484.67      1.37      0.66
  315              -1395.93      0.99      0.16
  317                114.61      0.73      0.33
  319                 21.85      0.06      0.00
  321               7056.60      3.20      0.94
  323                 -5.40      0.02      0.00
  325                113.25      0.72      0.32
  329              13180.48      5.98      3.02
  330                  0.00      0.00      0.00
  333                 -0.00      0.00      0.00
  10                   0.00      0.00      0.00  Pump
  335              13180.48      0.00    -93.24  Pump
   
   
  Node Results at 24:00:00 hrs:
  --------------------------------------------------------
                     Demand      Head  Pressure  Chemical
  Node                  gpm        ft       psi      mg/L
  --------------------------------------------------------
  10                   0.00    146.76     -0.10      0.00
  15                 629.57    126.24     40.83      0.00
  20                   0.00    160.13     13.49      0.00
  35                1292.47    148.45     58.91      0.00
  40                   0.00    148.36      7.13      0.00
  50                   0.00    140.63     10.45      0.00
  60                   0.00    209.11     90.61      0.00
  601                  0.00    303.13    131.35      0.00
  61                   0.00    303.13    131.35      0.00
  101                307.72    146.76     45.39      0.00
  103                215.78    146.74     44.95      0.00
  105                219.30    148.19     51.86      0.00
  107                 88.52    148.19     54.68      0.00
  109                374.87    146.77     54.80      0.00
  111                229.94    147.95     59.77      0.00
  113                 32.42    148.11     63.31      0.00
  115                 84.40    148.61     58.33      0.00
  117                190.69    151.62     59.80      0.00
  119                285.33    159.56     68.27      0.00
  120                  0.00    156.97     68.02      0.00
  121                 67.44    162.99     71.49      0.00
  123                  0.00    167.41     67.77      0.00
  125                 73.87    162.42     65.61      0.00
  127                 28.61    160.81     45.42      0.00
  129                  0.00    160.80     47.58      0.00
  131                 69.25    160.77     67.06      0.00
  139                  9.54    154.59     53.55      0.00
  141                 15.96    150.21     63.35      0.00
  143                 10.04    139.03     62.19      0.00
  145                 44.76    151.42     65.18      0.00
  147                 13.85    152.38     58.01      0.00
  149                 43.85    152.79     59.27      0.00
  151                234.06    156.93     53.48      0.00
  153                 71.56    157.03     39.36      0.00
  157                 83.90    157.23     62.45      0.00
  159                 66.94    154.03     64.14      0.00
  161                 25.60    151.86     64.07      0.00
  163                 15.26    151.43     63.45      0.00
  164                  0.00    151.43     63.45      0.00
  166                  4.21    151.43     66.48      0.00
  167                 23.59    149.67     67.02      0.00
  169                  0.00    149.67     67.02      0.00
  171                 63.73    148.67     66.15      0.00
  173                  0.00    148.64     66.14      0.00
  177                 94.24    148.44     60.85      0.00
  179                  0.00    148.43     60.85      0.00
  181                  0.00    148.45     60.86      0.00
  183                  0.00    148.40     59.54      0.00
  184                  0.00    146.86     56.70      0.00
  185                 41.55    147.44     56.95      0.00
  187                  0.00    147.96     58.70      0.00
  189                174.83    148.45     62.59      0.00
  191                132.68    148.03     53.31      0.00
  193                115.52    148.18     56.41      0.00
  195                  0.00    148.26     57.52      0.00
  197                 27.60    147.99     54.16      0.00
  199                193.30    143.26     62.94      0.00
  201                 72.27    142.52     61.71      0.00
  203               4239.49    142.37     60.82      0.00
  204                  0.00    147.78     54.93      0.00
  205                105.88    143.17     52.94      0.00
  206                  0.00    141.90     61.05      0.00
  207                112.41    142.33     57.77      0.00
  208                  0.00    141.41     54.34      0.00
  209                  1.41    140.56     61.77      0.00
  211                 14.05    140.28     57.75      0.00
  213                 22.58    140.18     57.71      0.00
  215                149.35    139.90     57.59      0.00
  217                 39.24    139.88     58.01     16.64
  219                 66.94    139.86     58.87      0.00
  225                 36.94    139.87     57.14      0.00
  229                103.97    139.93     56.08      0.00
  231                 26.70    139.92     58.46      0.00
  237                 25.29    140.02     54.61      0.00
  239                 72.27    140.00     55.03      0.00
  241                  0.00    140.00     55.03      0.00
  243                  7.03    140.00     54.60      0.00
  247                114.02    140.00     52.86      0.05
  249                  0.00    140.00     52.86      0.61
  251                 39.14    140.00     47.66      0.00
  253                 88.32    140.01     45.07      0.00
  255                 65.43    140.08     49.00      0.00
  257                  0.00    153.69     59.23      0.00
  259                  0.00    153.23     55.56      0.00
  261                  0.00    151.56     65.67      0.00
  263                  0.00    151.39     65.60      0.00
  265                  0.00    150.23     65.09      0.00
  267                  0.00    148.44     55.22      0.00
  269                  0.00    148.95     64.54      0.00
  271                  0.00    148.51     61.75      0.00
  273                  0.00    143.18     58.58      0.00
  275                  0.00    142.52     57.42      0.00
  River           -13092.32    220.00      0.00      0.00  Reservoir
  Lake                 0.00    167.00      0.00      0.00  Reservoir
  1                  128.28    148.36      7.13      0.00  Tank
  2                 -282.08    140.63     10.45      0.00  Tank
  3                 2146.65    160.13     13.49      0.00  Tank
   
   
  Link Results at 24:00:00 hrs:
  ----------------------------------------------
                       Flow  Velocity  Headloss
  Link                  gpm       fps   /1000ft
  ----------------------------------------------
  20               -2146.65      0.09      0.00
  40                -128.28      0.01      0.00
  50                 282.08      0.01      0.00
  60               13092.32      9.29      8.84
  101                  0.00      0.00      0.00
  103                135.20      0.22      0.02
  105               -442.92      1.26      0.56
  107                 -2.41      0.01      0.00
  109                -80.59      0.13      0.01
  111               -455.45      1.29      0.59
  112                446.67      1.27      0.57
  113               -173.02      0.49      0.10
  114                 98.09      0.63      0.25
  115                -90.93      0.58      0.22
  116               -107.35      0.30      0.04
  117                659.80      1.87      1.17
  119               -720.09      2.04      1.38
  120               1197.96      3.40      3.54
  121               1068.44      3.03      2.87
  122                372.62      2.38      2.94
  123               9782.22      4.44      1.72
  125              13092.32      5.94      2.94
  129               2870.04      2.04      0.61
  131               2568.02      1.82      0.50
  133              -2146.65      2.19      0.87
  135                392.77      0.28      0.02
  137                 69.25      0.11      0.00
  145                323.51      2.06      2.26
  147                313.97      2.00      2.14
  149               -639.61      4.08      7.98
  151               -629.57      4.02      7.75
  153                341.60      0.97      0.35
  155                386.36      1.10      0.44
  159               -400.21      1.14      0.46
  161               -444.06      2.83      4.06
  163               -156.59      0.44      0.08
  169                228.14      1.46      1.18
  171                521.54      1.48      0.76
  173               7777.39      3.53      1.12
  175               7693.49      3.49      1.10
  177               7626.55      3.46      1.08
  179               7335.51      3.33      1.01
  180                  4.21      0.01      0.00
  181                  4.21      0.01      0.00
  183               7093.41      3.22      0.95
  185                -23.59      0.15      0.02
  186                289.61      1.85      1.84
  187               6427.93      2.92      0.79
  189               4772.76      2.17      0.45
  191              -1591.44      1.13      0.20
  193              -1292.47      0.92      0.14
  195                415.03      1.18      0.50
  197                320.80      0.91      0.31
  199                192.51      0.55      0.12
  201               -128.28      0.36      0.06
  202                541.18      3.45      5.86
  203                293.12      1.87      1.88
  204                541.18      1.54      0.81
  205                289.61      0.82      0.26
  207                100.61      0.29      0.04
  209                205.21      1.31      0.97
  211                641.89      1.82      1.12
  213                 84.40      0.24      0.03
  215                -45.19      0.13      0.01
  217               -310.39      0.88      0.29
  219               -265.44      0.75      0.22
  221                265.44      1.69      1.57
  223                -93.31      0.26      0.03
  225                -65.71      0.19      0.02
  229               4772.76      3.38      1.35
  231               4405.09      3.12      1.16
  233               4239.49      3.01      1.26
  235                174.36      0.49      0.10
  237                500.95      1.42      0.70
  238                590.58      1.68      0.96
  239                202.05      0.57      0.13
  240                590.58      1.68      0.96
  241                590.58      1.68      0.96
  243                589.17      0.94      0.23
  245                379.36      0.61      0.10
  247                292.46      0.47      0.06
  249                143.11      0.23      0.02
  251                 66.94      0.14      0.01
  257                 36.94      0.10      0.01
  261                 64.31      0.41      0.11
  263                 26.70      0.08      0.00
  269                195.77      0.56      0.12
  271                 66.35      0.42      0.12
  273                104.13      0.30      0.04
  275                 16.32      0.05      0.00
  277                  7.03      0.02      0.00
  281                  9.29      0.04      0.00
  283                 15.54      0.04      0.00
  285                -25.87      0.07      0.00
  287                -78.85      0.32      0.06
  289                282.08      1.15      0.59
  291                 88.32      0.36      0.07
  293                 49.47      0.32      0.07
  295                -10.33      0.03      0.00
  297                502.14      3.21      5.10
  299                241.37      1.54      1.31
  301                241.37      1.54      1.31
  303                260.77      1.66      1.52
  305                157.66      0.45      0.08
  307                418.43      1.19      0.50
  309                222.63      1.42      1.13
  311               -267.82      0.76      0.22
  313                525.83      1.49      0.77
  315              -1707.50      1.21      0.23
  317                108.71      0.69      0.30
  319                 65.65      0.19      0.02
  321               7316.04      3.32      1.00
  323                 93.34      0.26      0.03
  325                116.06      0.74      0.34
  329              13092.32      5.94      2.98
  330                  0.00      0.00      0.00
  333                 -0.00      0.00      0.00
  10                   0.00      0.00      0.00  Pump
  335              13092.32      0.00    -94.02  Pump
   
  Analysis ended Wed May 06 17:10:11 2020
