  Page 1                                    Wed May 06 17:12:21 2020

  ******************************************************************
  *                           E P A N E T                          *
  *                   Hydraulic and Water Quality                  *
  *                   Analysis for Pipe Networks                   *
  *                         Version 2.00.12                        *
  ******************************************************************
  
  Analysis begun Wed May 06 17:12:21 2020

   
  Hydraulic Status:
  -----------------------------------------------------------------------
     0:00:00: Balanced after 6 trials
     0:00:00: Reservoir River is emptying
     0:00:00: Reservoir Lake is closed
     0:00:00: Tank 1 is filling at 13.10 ft
     0:00:00: Tank 2 is emptying at 23.50 ft
     0:00:00: Tank 3 is filling at 29.00 ft
   
     0:05:00: Balanced after 2 trials
   
     0:10:00: Balanced after 2 trials
   
     0:15:00: Balanced after 2 trials
   
     0:20:00: Balanced after 2 trials
   
     0:25:00: Balanced after 2 trials
   
     0:30:00: Balanced after 2 trials
   
     0:35:00: Balanced after 2 trials
   
     0:40:00: Balanced after 2 trials
   
     0:45:00: Balanced after 2 trials
   
     0:50:00: Balanced after 2 trials
   
     0:55:00: Balanced after 2 trials
   
     1:00:00: Pump 10 changed by timer control
     1:00:00: Balanced after 7 trials
     1:00:00: Reservoir Lake is emptying
     1:00:00: Pump 10 changed from closed to open
   
     1:05:00: Balanced after 1 trials
   
     1:10:00: Balanced after 1 trials
   
     1:15:00: Balanced after 1 trials
   
     1:20:00: Balanced after 1 trials
   
     1:25:00: Balanced after 1 trials
   
     1:30:00: Balanced after 1 trials
     1:30:00: Tank 2 is closed at 21.98 ft
   
     1:35:00: Balanced after 1 trials
     1:35:00: Tank 2 is filling at 21.98 ft
   
     1:40:00: Balanced after 1 trials
   
     1:45:00: Balanced after 1 trials
   
     1:50:00: Balanced after 1 trials
   
     1:55:00: Balanced after 1 trials
   
     2:00:00: Balanced after 3 trials
   
     2:05:00: Balanced after 1 trials
   
     2:10:00: Balanced after 1 trials
   
     2:15:00: Balanced after 1 trials
   
     2:20:00: Balanced after 1 trials
   
     2:25:00: Balanced after 1 trials
   
     2:30:00: Balanced after 1 trials
   
     2:35:00: Balanced after 1 trials
   
     2:40:00: Balanced after 1 trials
   
     2:45:00: Balanced after 1 trials
   
     2:50:00: Balanced after 1 trials
   
     2:55:00: Balanced after 1 trials
   
     3:00:00: Balanced after 2 trials
     3:00:00: Tank 2 is emptying at 22.15 ft
   
     3:05:00: Balanced after 1 trials
   
     3:10:00: Balanced after 1 trials
   
     3:15:00: Balanced after 1 trials
   
     3:20:00: Balanced after 1 trials
   
     3:25:00: Balanced after 1 trials
   
     3:30:00: Balanced after 1 trials
   
     3:35:00: Balanced after 1 trials
     3:35:00: Tank 2 is filling at 22.11 ft
   
     3:40:00: Balanced after 1 trials
   
     3:45:00: Balanced after 1 trials
   
     3:50:00: Balanced after 1 trials
   
     3:55:00: Balanced after 1 trials
   
     4:00:00: Balanced after 3 trials
   
     4:05:00: Balanced after 1 trials
   
     4:10:00: Balanced after 1 trials
   
     4:15:00: Balanced after 1 trials
   
     4:20:00: Balanced after 1 trials
   
     4:21:20: Pump 335 changed by Tank 1 control
     4:21:20: Pipe 330 changed by Tank 1 control
     4:21:20: Balanced after 4 trials
     4:21:20: Pipe 330 changed from closed to open
     4:21:20: Pump 335 changed from open to closed
   
     4:25:00: Balanced after 1 trials
   
     4:30:00: Balanced after 2 trials
   
     4:35:00: Balanced after 2 trials
   
     4:40:00: Balanced after 2 trials
   
     4:45:00: Balanced after 2 trials
   
     4:50:00: Balanced after 2 trials
   
     4:55:00: Balanced after 2 trials
   
     5:00:00: Balanced after 3 trials
     5:00:00: Tank 3 is emptying at 34.51 ft
   
     5:05:00: Balanced after 2 trials
   
     5:10:00: Balanced after 2 trials
   
     5:15:00: Balanced after 2 trials
   
     5:20:00: Balanced after 2 trials
   
     5:25:00: Balanced after 2 trials
   
     5:30:00: Balanced after 2 trials
   
     5:35:00: Balanced after 2 trials
   
     5:40:00: Balanced after 2 trials
   
     5:45:00: Balanced after 2 trials
   
     5:50:00: Balanced after 2 trials
   
     5:55:00: Balanced after 2 trials
   
     6:00:00: Balanced after 3 trials
     6:00:00: Tank 3 is filling at 34.29 ft
   
     6:05:00: Balanced after 1 trials
   
     6:10:00: Balanced after 1 trials
   
     6:15:00: Balanced after 1 trials
   
     6:20:00: Balanced after 1 trials
   
     6:25:00: Balanced after 1 trials
   
     6:30:00: Balanced after 1 trials
   
     6:35:00: Balanced after 1 trials
   
     6:40:00: Balanced after 1 trials
   
     6:45:00: Balanced after 1 trials
   
     6:50:00: Balanced after 1 trials
   
     6:55:00: Balanced after 1 trials
   
     7:00:00: Balanced after 3 trials
   
     7:05:00: Balanced after 1 trials
   
     7:10:00: Balanced after 1 trials
   
     7:15:00: Balanced after 1 trials
   
     7:20:00: Balanced after 1 trials
   
     7:25:00: Balanced after 1 trials
   
     7:30:00: Balanced after 1 trials
   
     7:35:00: Balanced after 1 trials
   
     7:40:00: Balanced after 1 trials
   
     7:45:00: Balanced after 1 trials
   
     7:50:00: Balanced after 1 trials
   
     7:55:00: Balanced after 1 trials
   
     8:00:00: Balanced after 3 trials
   
     8:05:00: Balanced after 1 trials
   
     8:10:00: Balanced after 1 trials
   
     8:15:00: Balanced after 1 trials
   
     8:20:00: Balanced after 1 trials
   
     8:25:00: Balanced after 1 trials
   
     8:30:00: Balanced after 1 trials
   
     8:35:00: Balanced after 1 trials
   
     8:40:00: Balanced after 1 trials
   
     8:45:00: Balanced after 1 trials
   
     8:50:00: Balanced after 1 trials
   
     8:55:00: Balanced after 1 trials
   
     9:00:00: Balanced after 4 trials
     9:00:00: Tank 3 is emptying at 35.14 ft
   
     9:05:00: Balanced after 2 trials
   
     9:10:00: Balanced after 2 trials
   
     9:15:00: Balanced after 2 trials
   
     9:20:00: Balanced after 2 trials
   
     9:25:00: Balanced after 2 trials
   
     9:30:00: Balanced after 2 trials
   
     9:35:00: Balanced after 2 trials
   
     9:40:00: Balanced after 2 trials
   
     9:45:00: Balanced after 2 trials
   
     9:50:00: Balanced after 2 trials
   
     9:55:00: Balanced after 2 trials
   
    10:00:00: Balanced after 3 trials
    10:00:00: Tank 1 is emptying at 22.31 ft
   
    10:05:00: Balanced after 1 trials
   
    10:10:00: Balanced after 1 trials
   
    10:15:00: Balanced after 1 trials
   
    10:20:00: Balanced after 1 trials
   
    10:25:00: Balanced after 1 trials
   
    10:30:00: Balanced after 1 trials
   
    10:35:00: Balanced after 1 trials
   
    10:40:00: Balanced after 1 trials
   
    10:45:00: Balanced after 1 trials
   
    10:50:00: Balanced after 1 trials
   
    10:55:00: Balanced after 1 trials
   
    11:00:00: Balanced after 3 trials
    11:00:00: Tank 2 is emptying at 27.08 ft
   
    11:05:00: Balanced after 1 trials
   
    11:10:00: Balanced after 1 trials
   
    11:15:00: Balanced after 1 trials
   
    11:20:00: Balanced after 1 trials
   
    11:25:00: Balanced after 1 trials
   
    11:30:00: Balanced after 1 trials
   
    11:35:00: Balanced after 1 trials
   
    11:40:00: Balanced after 1 trials
   
    11:45:00: Balanced after 1 trials
   
    11:50:00: Balanced after 1 trials
   
    11:55:00: Balanced after 1 trials
   
    12:00:00: Balanced after 3 trials
    12:00:00: Tank 2 is filling at 26.65 ft
   
    12:05:00: Balanced after 1 trials
   
    12:10:00: Balanced after 1 trials
   
    12:15:00: Balanced after 1 trials
   
    12:20:00: Balanced after 1 trials
   
    12:25:00: Balanced after 1 trials
   
    12:30:00: Balanced after 1 trials
   
    12:35:00: Balanced after 1 trials
   
    12:40:00: Balanced after 1 trials
   
    12:45:00: Balanced after 1 trials
    12:45:00: Tank 2 is emptying at 26.69 ft
   
    12:50:00: Balanced after 1 trials
   
    12:55:00: Balanced after 1 trials
   
    13:00:00: Balanced after 3 trials
    13:00:00: Tank 1 is filling at 21.00 ft
    13:00:00: Tank 2 is filling at 26.68 ft
   
    13:05:00: Balanced after 1 trials
   
    13:10:00: Balanced after 1 trials
   
    13:15:00: Balanced after 1 trials
   
    13:20:00: Balanced after 1 trials
   
    13:25:00: Balanced after 1 trials
    13:25:00: Tank 1 is closed at 21.01 ft
   
    13:30:00: Balanced after 1 trials
    13:30:00: Tank 1 is emptying at 21.01 ft
   
    13:35:00: Balanced after 1 trials
   
    13:40:00: Balanced after 1 trials
   
    13:45:00: Balanced after 1 trials
   
    13:50:00: Balanced after 1 trials
   
    13:55:00: Balanced after 1 trials
   
    14:00:00: Balanced after 3 trials
    14:00:00: Tank 1 is filling at 21.00 ft
   
    14:05:00: Balanced after 2 trials
   
    14:10:00: Balanced after 2 trials
   
    14:15:00: Balanced after 2 trials
   
    14:20:00: Balanced after 2 trials
   
    14:25:00: Balanced after 2 trials
   
    14:30:00: Balanced after 2 trials
   
    14:35:00: Balanced after 2 trials
   
    14:40:00: Balanced after 2 trials
   
    14:45:00: Balanced after 2 trials
   
    14:50:00: Balanced after 2 trials
   
    14:55:00: Balanced after 2 trials
   
    15:00:00: Pump 10 changed by timer control
    15:00:00: Balanced after 5 trials
    15:00:00: Reservoir Lake is closed
    15:00:00: Tank 1 is emptying at 21.37 ft
    15:00:00: Tank 2 is emptying at 27.60 ft
    15:00:00: Pump 10 changed from open to closed
   
    15:05:00: Balanced after 1 trials
   
    15:10:00: Balanced after 1 trials
   
    15:15:00: Balanced after 1 trials
   
    15:20:00: Balanced after 1 trials
   
    15:25:00: Balanced after 1 trials
   
    15:30:00: Balanced after 1 trials
   
    15:35:00: Balanced after 1 trials
   
    15:40:00: Balanced after 1 trials
   
    15:45:00: Balanced after 1 trials
   
    15:50:00: Balanced after 1 trials
   
    15:55:00: Balanced after 1 trials
   
    16:00:00: Balanced after 3 trials
   
    16:05:00: Balanced after 1 trials
   
    16:10:00: Balanced after 1 trials
   
    16:15:00: Balanced after 1 trials
   
    16:20:00: Balanced after 1 trials
   
    16:25:00: Balanced after 1 trials
   
    16:30:00: Balanced after 1 trials
   
    16:35:00: Balanced after 1 trials
   
    16:40:00: Balanced after 1 trials
   
    16:45:00: Balanced after 1 trials
   
    16:50:00: Balanced after 1 trials
   
    16:55:00: Balanced after 1 trials
   
    17:00:00: Balanced after 3 trials
    17:00:00: Tank 2 is filling at 25.73 ft
   
    17:05:00: Balanced after 2 trials
   
    17:10:00: Balanced after 2 trials
   
    17:15:00: Balanced after 2 trials
   
    17:20:00: Balanced after 2 trials
   
    17:25:00: Balanced after 2 trials
   
    17:30:00: Balanced after 2 trials
   
    17:35:00: Balanced after 2 trials
   
    17:40:00: Balanced after 2 trials
   
    17:45:00: Balanced after 2 trials
   
    17:50:00: Balanced after 2 trials
   
    17:55:00: Balanced after 2 trials
   
    18:00:00: Balanced after 3 trials
   
    18:05:00: Balanced after 2 trials
   
    18:10:00: Balanced after 2 trials
   
    18:15:00: Balanced after 2 trials
   
    18:20:00: Balanced after 2 trials
   
    18:25:00: Balanced after 2 trials
   
    18:30:00: Balanced after 2 trials
   
    18:35:00: Balanced after 1 trials
   
    18:40:00: Balanced after 1 trials
   
    18:45:00: Balanced after 1 trials
   
    18:50:00: Balanced after 1 trials
   
    18:55:00: Balanced after 1 trials
   
    19:00:00: Balanced after 3 trials
   
    19:05:00: Balanced after 2 trials
   
    19:10:00: Balanced after 2 trials
   
    19:15:00: Balanced after 2 trials
   
    19:20:00: Balanced after 2 trials
   
    19:25:00: Balanced after 2 trials
   
    19:30:00: Balanced after 2 trials
   
    19:35:00: Balanced after 2 trials
   
    19:40:00: Balanced after 2 trials
   
    19:45:00: Balanced after 2 trials
   
    19:50:00: Balanced after 2 trials
   
    19:55:00: Balanced after 2 trials
   
    20:00:00: Balanced after 3 trials
    20:00:00: Tank 2 is emptying at 26.62 ft
   
    20:05:00: Balanced after 1 trials
   
    20:10:00: Balanced after 1 trials
   
    20:15:00: Balanced after 1 trials
   
    20:20:00: Balanced after 1 trials
   
    20:25:00: Balanced after 1 trials
   
    20:30:00: Balanced after 1 trials
   
    20:35:00: Balanced after 1 trials
   
    20:40:00: Balanced after 1 trials
   
    20:40:52: Pump 335 changed by Tank 1 control
    20:40:52: Pipe 330 changed by Tank 1 control
    20:40:52: Balanced after 5 trials
    20:40:52: Tank 1 is filling at 17.10 ft
    20:40:52: Tank 2 is filling at 26.57 ft
    20:40:52: Tank 3 is filling at 29.62 ft
    20:40:52: Pipe 330 changed from open to closed
    20:40:52: Pump 335 changed from closed to open
   
    20:45:00: Balanced after 1 trials
   
    20:50:00: Balanced after 1 trials
   
    20:55:00: Balanced after 1 trials
   
    21:00:00: Balanced after 3 trials
    21:00:00: Tank 2 is emptying at 26.70 ft
   
    21:05:00: Balanced after 2 trials
   
    21:10:00: Balanced after 2 trials
   
    21:15:00: Balanced after 2 trials
   
    21:20:00: Balanced after 2 trials
   
    21:25:00: Balanced after 2 trials
   
    21:30:00: Balanced after 2 trials
   
    21:35:00: Balanced after 2 trials
   
    21:40:00: Balanced after 2 trials
   
    21:45:00: Balanced after 2 trials
   
    21:50:00: Balanced after 2 trials
   
    21:55:00: Balanced after 2 trials
   
    22:00:00: Balanced after 4 trials
    22:00:00: Tank 1 is emptying at 17.91 ft
   
    22:05:00: Balanced after 2 trials
   
    22:10:00: Balanced after 2 trials
   
    22:15:00: Balanced after 2 trials
   
    22:20:00: Balanced after 2 trials
   
    22:25:00: Balanced after 2 trials
   
    22:30:00: Balanced after 2 trials
   
    22:35:00: Balanced after 2 trials
   
    22:40:00: Balanced after 2 trials
   
    22:45:00: Balanced after 2 trials
   
    22:50:00: Balanced after 2 trials
   
    22:55:00: Balanced after 2 trials
   
    23:00:00: Balanced after 3 trials
   
    23:05:00: Balanced after 2 trials
   
    23:10:00: Balanced after 2 trials
   
    23:15:00: Balanced after 2 trials
   
    23:20:00: Balanced after 2 trials
   
    23:25:00: Balanced after 2 trials
   
    23:30:00: Balanced after 2 trials
   
    23:35:00: Balanced after 2 trials
   
    23:40:00: Balanced after 2 trials
   
    23:45:00: Balanced after 2 trials
   
    23:50:00: Balanced after 2 trials
   
    23:55:00: Balanced after 2 trials
   
    24:00:00: Balanced after 4 trials
    24:00:00: Tank 1 is filling at 15.95 ft
   
   
  Node Results at 0:00:00 hrs:
  --------------------------------------------------------
                     Demand      Head  Pressure  Chemical
  Node                  gpm        ft       psi      mg/L
  --------------------------------------------------------
  10                   0.00    145.57     -0.62      0.00
  15                 575.03    130.01     42.47      0.00
  20                   0.00    158.00     12.57      0.00
  35                1682.12    145.28     57.53      0.00
  40                   0.00    145.00      5.68      0.00
  50                   0.00    140.00     10.18      0.00
  60                   0.00    209.01     90.56      0.00
  601                  0.00    302.43    131.04      0.00
  61                   0.00    302.43    131.04      0.00
  101                233.64    145.57     44.88      0.00
  103                163.84    145.53     44.43      0.00
  105                166.51    146.85     51.28      0.00
  107                 67.21    146.83     54.09      0.00
  109                284.62    145.53     54.26      0.00
  111                174.59    145.96     58.91      0.00
  113                 24.61    145.97     62.38      0.00
  115                 64.08    146.85     57.57      0.00
  117                144.78    150.02     59.11      0.00
  119                216.64    157.45     67.35      0.00
  120                  0.00    155.05     67.18      0.00
  121                 51.20    160.94     70.60      0.00
  123                  0.00    165.40     66.90      0.00
  125                 56.09    160.38     64.72      0.00
  127                 21.72    158.73     44.51      0.00
  129                  0.00    158.72     46.68      0.00
  131                 52.58    158.71     66.17      0.00
  139                  7.24    153.76     53.19      0.00
  141                 12.12    150.23     63.36      0.00
  143                  7.63    140.82     62.97      0.00
  145                 33.98    151.28     65.11      0.00
  147                 10.52    152.07     57.88      0.00
  149                 33.30    152.41     59.11      0.00
  151                177.71    155.71     52.96      0.00
  153                 54.33    155.81     38.83      0.00
  157                 63.70    154.93     61.46      0.00
  159                 50.82    151.47     63.03      0.00
  161                 19.43    149.11     62.88      0.00
  163                 11.59    148.64     62.24      0.00
  164                  0.00    148.64     62.24      0.00
  166                  3.20    148.64     65.27      0.00
  167                 17.91    146.69     65.73      0.00
  169                  0.00    146.69     65.73      0.00
  171                 48.39    145.55     64.80      0.00
  173                  0.00    145.52     64.79      0.00
  177                 71.55    145.28     59.48      0.00
  179                  0.00    145.27     59.48      0.00
  181                  0.00    145.28     59.48      0.00
  183                  0.00    145.28     58.18      0.00
  184                  0.00    143.88     55.41      0.00
  185                 31.55    144.58     55.71      0.00
  187                  0.00    145.44     57.60      0.00
  189                132.74    145.75     61.42      0.00
  191                100.74    145.83     52.35      0.00
  193                 87.71    145.92     55.43      0.00
  195                  0.00    145.99     56.54      0.00
  197                 20.96    145.86     53.23      0.00
  199                146.76    139.48     61.30      0.00
  201                 54.87    138.60     60.01      0.00
  203               5067.97    138.39     59.10      0.00
  204                  0.00    145.14     53.79      0.00
  205                 80.39    139.48     51.34      0.00
  206                  0.00    138.67     59.65      0.00
  207                 85.35    138.75     56.22      0.00
  208                  0.00    138.58     53.11      0.00
  209                  1.07    138.42     60.85      0.00
  211                 10.66    138.37     56.92      0.00
  213                 17.15    138.32     56.90      0.00
  215                113.39    138.15     56.83      0.00
  217                 29.79    138.14     57.25      0.00
  219                 50.82    138.13     58.12      0.00
  225                 28.04    138.13     56.39      0.00
  229                 78.94    138.27     55.36      0.00
  231                 20.27    138.27     57.74      0.00
  237                 19.20    138.38     53.90      0.00
  239                 54.87    138.41     54.34      0.00
  241                  0.00    138.41     54.34      0.00
  243                  5.34    138.41     53.91      0.00
  247                 86.57    138.43     52.18      0.00
  249                  0.00    138.43     52.18      0.00
  251                 29.72    138.47     47.00      0.00
  253                 67.06    138.79     44.54      0.00
  255                 49.68    138.84     48.46      0.00
  257                  0.00    151.96     58.48      0.00
  259                  0.00    151.53     54.83      0.00
  261                  0.00    149.97     64.98      0.00
  263                  0.00    149.81     64.91      0.00
  265                  0.00    147.31     63.83      0.00
  267                  0.00    145.92     54.13      0.00
  269                  0.00    146.09     63.30      0.00
  271                  0.00    145.36     60.38      0.00
  273                  0.00    139.47     56.97      0.00
  275                  0.00    138.66     55.75      0.00
  River           -13160.16    220.00      0.00      0.00  Reservoir
  Lake                 0.00    167.00      0.00      0.00  Reservoir
  1                  273.63    145.00      5.68      0.00  Tank
  2                 -423.77    140.00     10.18      0.00  Tank
  3                 2236.01    158.00     12.57      0.00  Tank
   
   
  Link Results at 0:00:00 hrs:
  ----------------------------------------------
                       Flow  Velocity  Headloss
  Link                  gpm       fps   /1000ft
  ----------------------------------------------
  20               -2236.01      0.09      0.00
  40                -273.63      0.01      0.00
  50                 423.77      0.02      0.00
  60               13160.16      9.33      8.93
  101                  0.00      0.00      0.00
  103                183.68      0.29      0.03
  105               -417.32      1.18      0.50
  107                 49.26      0.14      0.01
  109                 19.85      0.03      0.00
  111               -264.77      0.75      0.22
  112                524.01      1.49      0.77
  113                -19.62      0.06      0.00
  114                134.18      0.86      0.44
  115                -17.94      0.11      0.01
  116                 89.95      0.26      0.03
  117                633.09      1.80      1.09
  119               -740.22      2.10      1.45
  120               1149.71      3.26      3.28
  121               1032.88      2.93      2.69
  122                368.37      2.35      2.87
  123               9878.94      4.48      1.75
  125              13160.16      5.97      2.97
  129               2861.64      2.03      0.61
  131               2596.97      1.84      0.51
  133              -2236.01      2.28      0.93
  135                339.24      0.24      0.01
  137                 52.58      0.08      0.00
  145                286.66      1.83      1.81
  147                279.41      1.78      1.72
  149               -582.66      3.72      6.72
  151               -575.03      3.67      6.56
  153                315.36      0.89      0.30
  155                349.35      0.99      0.36
  159               -359.86      1.02      0.38
  161               -393.16      2.51      3.24
  163               -154.26      0.44      0.08
  169                208.58      1.33      1.00
  171                416.61      1.18      0.50
  173               8095.97      3.67      1.21
  175               8032.27      3.65      1.19
  177               7981.45      3.62      1.18
  179               7716.19      3.50      1.11
  180                  3.20      0.01      0.00
  181                  3.20      0.01      0.00
  183               7506.58      3.41      1.05
  185                -17.91      0.11      0.01
  186                379.66      2.42      3.04
  187               6906.00      3.13      0.90
  189               5078.30      2.30      0.51
  191              -1779.31      1.26      0.25
  193              -1682.12      1.19      0.23
  195                250.71      0.71      0.20
  197                179.16      0.51      0.10
  199                -94.47      0.27      0.03
  201               -273.63      0.78      0.23
  202                595.85      3.80      7.00
  203                247.74      1.58      1.38
  204                595.85      1.69      0.97
  205                379.66      1.08      0.42
  207                342.21      0.97      0.35
  209                161.01      1.03      0.62
  211                582.67      1.65      0.93
  213                218.65      0.62      0.15
  215                206.81      0.59      0.14
  217               -236.08      0.67      0.17
  219               -245.82      0.70      0.19
  221                245.82      1.57      1.36
  223                 83.31      0.24      0.03
  225                104.26      0.30      0.04
  229               5078.30      3.60      1.51
  231               4866.15      3.45      1.40
  233               5067.97      3.59      1.75
  235                 65.39      0.19      0.02
  237                460.55      1.31      0.60
  238                238.81      0.68      0.18
  239               -136.39      0.39      0.06
  240                238.81      0.68      0.18
  241                238.81      0.68      0.18
  243                237.74      0.38      0.04
  245                265.47      0.42      0.05
  247                222.05      0.35      0.04
  249                108.66      0.17      0.01
  251                 50.82      0.11      0.00
  257                 28.04      0.08      0.00
  261                 26.27      0.17      0.02
  263                 20.27      0.06      0.00
  269                -38.40      0.11      0.01
  271                 72.94      0.47      0.14
  273               -130.54      0.37      0.06
  275                -66.15      0.19      0.02
  277                  5.34      0.02      0.00
  281                -71.49      0.29      0.05
  283               -119.26      0.34      0.05
  285                 34.10      0.10      0.00
  287               -192.15      0.78      0.29
  289                423.77      1.73      1.26
  291                 67.06      0.27      0.04
  293                114.88      0.73      0.33
  295                -85.16      0.24      0.03
  297                485.21      3.10      4.79
  299                233.13      1.49      1.23
  301                233.13      1.49      1.23
  303                252.08      1.61      1.42
  305                147.88      0.42      0.07
  307                399.96      1.13      0.46
  309                194.83      1.24      0.88
  311                 11.98      0.03      0.00
  313                429.15      1.22      0.53
  315              -1932.83      1.37      0.29
  317                120.30      0.77      0.36
  319                -54.91      0.16      0.01
  321               7701.41      3.50      1.10
  323               -256.69      0.73      0.20
  325                153.51      0.98      0.57
  329              13160.16      5.97      3.01
  330                  0.00      0.00      0.00
  333                 -0.00      0.00      0.00
  10                   0.00      0.00      0.00  Pump
  335              13160.16      0.00    -93.42  Pump
   
   
  Node Results at 0:05:00 hrs:
  --------------------------------------------------------
                     Demand      Head  Pressure  Chemical
  Node                  gpm        ft       psi      mg/L
  --------------------------------------------------------
  10                   0.00    145.60     -0.61      0.00
  15                 575.03    130.06     42.49      0.00
  20                   0.00    158.07     12.60      0.00
  35                1682.12    145.30     57.54      0.00
  40                   0.00    145.03      5.69      0.00
  50                   0.00    139.86     10.12      0.00
  60                   0.00    209.01     90.56      0.00
  601                  0.00    302.45    131.05      0.00
  61                   0.00    302.45    131.05      0.00
  101                233.64    145.60     44.89      0.00
  103                163.84    145.56     44.44      0.00
  105                166.51    146.88     51.29      0.00
  107                 67.21    146.86     54.10      0.00
  109                284.62    145.56     54.28      0.00
  111                174.59    145.99     58.93      0.00
  113                 24.61    146.00     62.39      0.00
  115                 64.08    146.88     57.58      0.00
  117                144.78    150.05     59.13      0.00
  119                216.64    157.49     67.37      0.00
  120                  0.00    155.09     67.20      0.00
  121                 51.20    160.99     70.62      0.00
  123                  0.00    165.45     66.92      0.00
  125                 56.09    160.43     64.75      0.00
  127                 21.72    158.80     44.54      0.00
  129                  0.00    158.79     46.70      0.00
  131                 52.58    158.77     66.20      0.00
  139                  7.24    153.82     53.22      0.00
  141                 12.12    150.28     63.38      0.00
  143                  7.63    140.88     62.99      0.00
  145                 33.98    151.33     65.14      0.00
  147                 10.52    152.12     57.90      0.00
  149                 33.30    152.46     59.13      0.00
  151                177.71    155.76     52.98      0.00
  153                 54.33    155.85     38.85      0.00
  157                 63.70    154.97     61.47      0.00
  159                 50.82    151.50     63.05      0.00
  161                 19.43    149.14     62.89      0.00
  163                 11.59    148.67     62.25      0.00
  164                  0.00    148.67     62.25      0.00
  166                  3.20    148.67     65.28      0.00
  167                 17.91    146.72     65.74      0.00
  169                  0.00    146.72     65.74      0.00
  171                 48.39    145.58     64.81      0.00
  173                  0.00    145.55     64.80      0.00
  177                 71.55    145.30     59.49      0.00
  179                  0.00    145.30     59.49      0.00
  181                  0.00    145.31     59.50      0.00
  183                  0.00    145.31     58.19      0.00
  184                  0.00    143.90     55.42      0.00
  185                 31.55    144.60     55.72      0.00
  187                  0.00    145.47     57.61      0.00
  189                132.74    145.78     61.43      0.00
  191                100.74    145.86     52.37      0.00
  193                 87.71    145.95     55.44      0.00
  195                  0.00    146.02     56.55      0.00
  197                 20.96    145.89     53.25      0.00
  199                146.76    139.48     61.30      0.00
  201                 54.87    138.60     60.01      0.00
  203               5067.97    138.39     59.10      0.00
  204                  0.00    145.16     53.80      0.00
  205                 80.39    139.48     51.34      0.00
  206                  0.00    138.65     59.65      0.00
  207                 85.35    138.74     56.22      0.00
  208                  0.00    138.55     53.10      0.00
  209                  1.07    138.38     60.83      0.00
  211                 10.66    138.32     56.90      0.00
  213                 17.15    138.27     56.88      0.00
  215                113.39    138.11     56.81      0.00
  217                 29.79    138.09     57.23      0.00
  219                 50.82    138.08     58.10      0.00
  225                 28.04    138.08     56.37      0.00
  229                 78.94    138.22     55.34      0.00
  231                 20.27    138.22     57.72      0.00
  237                 19.20    138.33     53.87      0.00
  239                 54.87    138.36     54.32      0.00
  241                  0.00    138.36     54.32      0.00
  243                  5.34    138.36     53.88      0.00
  247                 86.57    138.38     52.16      0.00
  249                  0.00    138.38     52.16      0.00
  251                 29.72    138.41     46.97      0.00
  253                 67.06    138.71     44.50      0.00
  255                 49.68    138.75     48.42      0.00
  257                  0.00    152.00     58.50      0.00
  259                  0.00    151.57     54.84      0.00
  261                  0.00    150.01     65.00      0.00
  263                  0.00    149.84     64.93      0.00
  265                  0.00    147.34     63.84      0.00
  267                  0.00    145.95     54.14      0.00
  269                  0.00    146.12     63.31      0.00
  271                  0.00    145.38     60.40      0.00
  273                  0.00    139.47     56.97      0.00
  275                  0.00    138.66     55.75      0.00
  River           -13158.51    220.00      0.00      0.00  Reservoir
  Lake                 0.00    167.00      0.00      0.00  Reservoir
  1                  270.34    145.03      5.69      0.00  Tank
  2                 -412.29    139.86     10.12      0.00  Tank
  3                 2226.16    158.07     12.60      0.00  Tank
   
   
  Link Results at 0:05:00 hrs:
  ----------------------------------------------
                       Flow  Velocity  Headloss
  Link                  gpm       fps   /1000ft
  ----------------------------------------------
  20               -2226.16      0.09      0.00
  40                -270.34      0.01      0.00
  50                 412.29      0.02      0.00
  60               13158.51      9.33      8.93
  101                  0.00      0.00      0.00
  103                183.95      0.29      0.03
  105               -417.59      1.18      0.50
  107                 49.45      0.14      0.01
  109                 20.11      0.03      0.00
  111               -264.51      0.75      0.22
  112                524.62      1.49      0.77
  113                -19.11      0.05      0.00
  114                134.35      0.86      0.44
  115                -17.76      0.11      0.01
  116                 90.63      0.26      0.03
  117                633.54      1.80      1.09
  119               -740.81      2.10      1.45
  120               1150.49      3.26      3.29
  121               1033.59      2.93      2.69
  122                368.64      2.35      2.88
  123               9886.52      4.49      1.75
  125              13158.51      5.97      2.97
  129               2852.14      2.02      0.60
  131               2587.33      1.83      0.50
  133              -2226.16      2.27      0.93
  135                339.44      0.24      0.01
  137                 52.58      0.08      0.00
  145                286.86      1.83      1.81
  147                279.62      1.78      1.72
  149               -582.66      3.72      6.72
  151               -575.03      3.67      6.56
  153                315.16      0.89      0.30
  155                349.14      0.99      0.36
  159               -359.66      1.02      0.38
  161               -392.95      2.51      3.24
  163               -154.39      0.44      0.08
  169                208.72      1.33      1.00
  171                416.27      1.18      0.50
  173               8103.12      3.68      1.21
  175               8039.42      3.65      1.19
  177               7988.60      3.63      1.18
  179               7723.21      3.51      1.11
  180                  3.20      0.01      0.00
  181                  3.20      0.01      0.00
  183               7513.58      3.41      1.05
  185                -17.91      0.11      0.01
  186                380.44      2.43      3.05
  187               6912.91      3.14      0.90
  189               5088.40      2.31      0.51
  191              -1776.12      1.26      0.25
  193              -1682.12      1.19      0.23
  195                247.66      0.70      0.19
  197                176.11      0.50      0.10
  199                -94.23      0.27      0.03
  201               -270.34      0.77      0.22
  202                597.24      3.81      7.03
  203                248.35      1.59      1.38
  204                597.24      1.69      0.98
  205                380.44      1.08      0.42
  207                342.57      0.97      0.35
  209                161.25      1.03      0.62
  211                582.77      1.65      0.93
  213                219.19      0.62      0.15
  215                207.46      0.59      0.14
  217               -236.26      0.67      0.18
  219               -245.95      0.70      0.19
  221                245.95      1.57      1.36
  223                 83.67      0.24      0.03
  225                104.63      0.30      0.04
  229               5088.40      3.61      1.52
  231               4873.07      3.46      1.40
  233               5067.97      3.59      1.75
  235                 68.56      0.19      0.02
  237                464.76      1.32      0.61
  238                250.29      0.71      0.19
  239               -129.12      0.37      0.06
  240                250.29      0.71      0.19
  241                250.29      0.71      0.19
  243                249.22      0.40      0.05
  245                266.33      0.42      0.05
  247                222.05      0.35      0.04
  249                108.66      0.17      0.01
  251                 50.82      0.11      0.00
  257                 28.04      0.08      0.00
  261                 27.13      0.17      0.02
  263                 20.27      0.06      0.00
  269                -27.77      0.08      0.00
  271                 72.08      0.46      0.14
  273               -119.06      0.34      0.05
  275                -61.85      0.18      0.01
  277                  5.34      0.02      0.00
  281                -67.19      0.27      0.04
  283               -112.08      0.32      0.04
  285                 31.12      0.09      0.00
  287               -184.88      0.76      0.27
  289                412.29      1.68      1.19
  291                 67.06      0.27      0.04
  293                110.67      0.71      0.31
  295                -80.95      0.23      0.02
  297                485.55      3.10      4.79
  299                233.29      1.49      1.23
  301                233.29      1.49      1.23
  303                252.25      1.61      1.43
  305                148.00      0.42      0.07
  307                400.25      1.14      0.46
  309                194.84      1.24      0.88
  311                 12.61      0.04      0.00
  313                429.11      1.22      0.53
  315              -1929.78      1.37      0.29
  317                120.65      0.77      0.36
  319                -52.09      0.15      0.01
  321               7708.43      3.50      1.10
  323               -249.77      0.71      0.19
  325                153.66      0.98      0.57
  329              13158.51      5.97      3.01
  330                  0.00      0.00      0.00
  333                 -0.00      0.00      0.00
  10                   0.00      0.00      0.00  Pump
  335              13158.51      0.00    -93.44  Pump
   
   
  Node Results at 0:10:00 hrs:
  --------------------------------------------------------
                     Demand      Head  Pressure  Chemical
  Node                  gpm        ft       psi      mg/L
  --------------------------------------------------------
  10                   0.00    145.63     -0.59      0.00
  15                 575.03    130.11     42.51      0.00
  20                   0.00    158.14     12.63      0.00
  35                1682.12    145.33     57.55      0.00
  40                   0.00    145.06      5.70      0.00
  50                   0.00    139.72     10.06      0.00
  60                   0.00    209.01     90.56      0.00
  601                  0.00    302.46    131.06      0.00
  61                   0.00    302.46    131.06      0.00
  101                233.64    145.63     44.90      0.00
  103                163.84    145.59     44.45      0.00
  105                166.51    146.91     51.31      0.00
  107                 67.21    146.89     54.12      0.00
  109                284.62    145.59     54.29      0.00
  111                174.59    146.02     58.94      0.00
  113                 24.61    146.03     62.41      0.00
  115                 64.08    146.91     57.59      0.00
  117                144.78    150.09     59.14      0.00
  119                216.64    157.54     67.39      0.00
  120                  0.00    155.13     67.22      0.00
  121                 51.20    161.04     70.65      0.00
  123                  0.00    165.50     66.94      0.00
  125                 56.09    160.48     64.77      0.00
  127                 21.72    158.86     44.57      0.00
  129                  0.00    158.85     46.73      0.00
  131                 52.58    158.83     66.22      0.00
  139                  7.24    153.87     53.24      0.00
  141                 12.12    150.33     63.41      0.00
  143                  7.63    140.93     63.01      0.00
  145                 33.98    151.38     65.16      0.00
  147                 10.52    152.17     57.92      0.00
  149                 33.30    152.51     59.15      0.00
  151                177.71    155.81     53.00      0.00
  153                 54.33    155.90     38.87      0.00
  157                 63.70    155.01     61.49      0.00
  159                 50.82    151.54     63.06      0.00
  161                 19.43    149.17     62.90      0.00
  163                 11.59    148.70     62.26      0.00
  164                  0.00    148.70     62.26      0.00
  166                  3.20    148.70     65.30      0.00
  167                 17.91    146.75     65.75      0.00
  169                  0.00    146.75     65.75      0.00
  171                 48.39    145.60     64.82      0.00
  173                  0.00    145.57     64.81      0.00
  177                 71.55    145.33     59.50      0.00
  179                  0.00    145.33     59.50      0.00
  181                  0.00    145.33     59.51      0.00
  183                  0.00    145.33     58.21      0.00
  184                  0.00    143.92     55.43      0.00
  185                 31.55    144.62     55.73      0.00
  187                  0.00    145.49     57.63      0.00
  189                132.74    145.80     61.44      0.00
  191                100.74    145.88     52.38      0.00
  193                 87.71    145.98     55.45      0.00
  195                  0.00    146.04     56.56      0.00
  197                 20.96    145.91     53.26      0.00
  199                146.76    139.49     61.31      0.00
  201                 54.87    138.60     60.01      0.00
  203               5067.97    138.39     59.10      0.00
  204                  0.00    145.19     53.81      0.00
  205                 80.39    139.48     51.34      0.00
  206                  0.00    138.64     59.64      0.00
  207                 85.35    138.73     56.21      0.00
  208                  0.00    138.53     53.09      0.00
  209                  1.07    138.34     60.81      0.00
  211                 10.66    138.28     56.88      0.00
  213                 17.15    138.22     56.86      0.00
  215                113.39    138.06     56.79      0.00
  217                 29.79    138.04     57.21      0.00
  219                 50.82    138.03     58.08      0.00
  225                 28.04    138.04     56.35      0.00
  229                 78.94    138.17     55.32      0.00
  231                 20.27    138.17     57.70      0.00
  237                 19.20    138.28     53.85      0.00
  239                 54.87    138.30     54.29      0.00
  241                  0.00    138.30     54.29      0.00
  243                  5.34    138.30     53.86      0.00
  247                 86.57    138.32     52.13      0.00
  249                  0.00    138.32     52.13      0.00
  251                 29.72    138.35     46.95      0.00
  253                 67.06    138.62     44.47      0.00
  255                 49.68    138.67     48.39      0.00
  257                  0.00    152.04     58.51      0.00
  259                  0.00    151.61     54.86      0.00
  261                  0.00    150.04     65.01      0.00
  263                  0.00    149.88     64.94      0.00
  265                  0.00    147.37     63.86      0.00
  267                  0.00    145.97     54.15      0.00
  269                  0.00    146.15     63.32      0.00
  271                  0.00    145.41     60.41      0.00
  273                  0.00    139.47     56.97      0.00
  275                  0.00    138.66     55.75      0.00
  River           -13156.86    220.00      0.00      0.00  Reservoir
  Lake                 0.00    167.00      0.00      0.00  Reservoir
  1                  267.11    145.06      5.70      0.00  Tank
  2                 -400.87    139.72     10.06      0.00  Tank
  3                 2216.33    158.14     12.63      0.00  Tank
   
   
  Link Results at 0:10:00 hrs:
  ----------------------------------------------
                       Flow  Velocity  Headloss
  Link                  gpm       fps   /1000ft
  ----------------------------------------------
  20               -2216.33      0.09      0.00
  40                -267.11      0.01      0.00
  50                 400.87      0.02      0.00
  60               13156.86      9.33      8.93
  101                  0.00      0.00      0.00
  103                184.21      0.29      0.03
  105               -417.85      1.19      0.50
  107                 49.64      0.14      0.01
  109                 20.38      0.03      0.00
  111               -264.25      0.75      0.22
  112                525.24      1.49      0.77
  113                -18.60      0.05      0.00
  114                134.52      0.86      0.44
  115                -17.57      0.11      0.01
  116                 91.31      0.26      0.03
  117                633.99      1.80      1.09
  119               -741.40      2.10      1.46
  120               1151.27      3.27      3.29
  121               1034.30      2.93      2.70
  122                368.91      2.35      2.88
  123               9894.10      4.49      1.75
  125              13156.86      5.97      2.97
  129               2842.65      2.02      0.60
  131               2577.70      1.83      0.50
  133              -2216.33      2.26      0.92
  135                339.65      0.24      0.01
  137                 52.58      0.08      0.00
  145                287.06      1.83      1.81
  147                279.82      1.79      1.73
  149               -582.66      3.72      6.72
  151               -575.03      3.67      6.56
  153                314.95      0.89      0.30
  155                348.94      0.99      0.36
  159               -359.45      1.02      0.38
  161               -392.75      2.51      3.24
  163               -154.53      0.44      0.08
  169                208.86      1.33      1.00
  171                415.93      1.18      0.50
  173               8110.26      3.68      1.21
  175               8046.56      3.65      1.20
  177               7995.74      3.63      1.18
  179               7730.22      3.51      1.11
  180                  3.20      0.01      0.00
  181                  3.20      0.01      0.00
  183               7520.58      3.41      1.05
  185                -17.91      0.11      0.01
  186                381.22      2.43      3.06
  187               6919.80      3.14      0.90
  189               5098.43      2.31      0.51
  191              -1772.98      1.26      0.25
  193              -1682.12      1.19      0.23
  195                244.66      0.69      0.19
  197                173.11      0.49      0.10
  199                -94.00      0.27      0.03
  201               -267.11      0.76      0.22
  202                598.62      3.82      7.06
  203                248.95      1.59      1.39
  204                598.62      1.70      0.98
  205                381.22      1.08      0.42
  207                342.95      0.97      0.35
  209                161.48      1.03      0.62
  211                582.87      1.65      0.93
  213                219.74      0.62      0.15
  215                208.11      0.59      0.14
  217               -236.43      0.67      0.18
  219               -246.08      0.70      0.19
  221                246.08      1.57      1.36
  223                 84.04      0.24      0.03
  225                105.00      0.30      0.04
  229               5098.43      3.62      1.52
  231               4880.07      3.46      1.40
  233               5067.97      3.59      1.75
  235                 71.60      0.20      0.02
  237                468.84      1.33      0.62
  238                261.70      0.74      0.21
  239               -121.78      0.35      0.05
  240                261.70      0.74      0.21
  241                261.70      0.74      0.21
  243                260.63      0.42      0.05
  245                266.94      0.43      0.05
  247                222.05      0.35      0.04
  249                108.66      0.17      0.01
  251                 50.82      0.11      0.00
  257                 28.04      0.08      0.00
  261                 27.75      0.18      0.02
  263                 20.27      0.06      0.00
  269                -16.98      0.05      0.00
  271                 71.47      0.46      0.14
  273               -107.64      0.31      0.04
  275                -57.58      0.16      0.01
  277                  5.34      0.02      0.00
  281                -62.91      0.26      0.04
  283               -104.94      0.30      0.04
  285                 28.17      0.08      0.00
  287               -177.65      0.73      0.25
  289                400.87      1.64      1.13
  291                 67.06      0.27      0.04
  293                106.48      0.68      0.29
  295                -76.77      0.22      0.02
  297                485.88      3.10      4.80
  299                233.45      1.49      1.23
  301                233.45      1.49      1.23
  303                252.43      1.61      1.43
  305                148.11      0.42      0.07
  307                400.54      1.14      0.47
  309                194.86      1.24      0.88
  311                 13.25      0.04      0.00
  313                429.06      1.22      0.53
  315              -1926.78      1.37      0.29
  317                120.99      0.77      0.37
  319                -49.39      0.14      0.01
  321               7715.44      3.50      1.11
  323               -242.77      0.69      0.18
  325                153.81      0.98      0.57
  329              13156.86      5.97      3.01
  330                  0.00      0.00      0.00
  333                 -0.00      0.00      0.00
  10                   0.00      0.00      0.00  Pump
  335              13156.86      0.00    -93.45  Pump
   
   
  Node Results at 0:15:00 hrs:
  --------------------------------------------------------
                     Demand      Head  Pressure  Chemical
  Node                  gpm        ft       psi      mg/L
  --------------------------------------------------------
  10                   0.00    145.66     -0.58      0.00
  15                 575.03    130.17     42.54      0.00
  20                   0.00    158.21     12.66      0.00
  35                1682.12    145.35     57.57      0.00
  40                   0.00    145.10      5.72      0.00
  50                   0.00    139.58     10.00      0.00
  60                   0.00    209.01     90.57      0.00
  601                  0.00    302.48    131.07      0.00
  61                   0.00    302.48    131.07      0.00
  101                233.64    145.66     44.92      0.00
  103                163.84    145.62     44.47      0.00
  105                166.51    146.94     51.32      0.00
  107                 67.21    146.93     54.13      0.00
  109                284.62    145.62     54.30      0.00
  111                174.59    146.05     58.95      0.00
  113                 24.61    146.05     62.42      0.00
  115                 64.08    146.95     57.61      0.00
  117                144.78    150.12     59.16      0.00
  119                216.64    157.58     67.41      0.00
  120                  0.00    155.18     67.24      0.00
  121                 51.20    161.09     70.67      0.00
  123                  0.00    165.55     66.96      0.00
  125                 56.09    160.54     64.79      0.00
  127                 21.72    158.93     44.60      0.00
  129                  0.00    158.92     46.76      0.00
  131                 52.58    158.90     66.25      0.00
  139                  7.24    153.93     53.27      0.00
  141                 12.12    150.39     63.43      0.00
  143                  7.63    140.98     63.04      0.00
  145                 33.98    151.43     65.18      0.00
  147                 10.52    152.22     57.94      0.00
  149                 33.30    152.56     59.17      0.00
  151                177.71    155.86     53.02      0.00
  153                 54.33    155.95     38.89      0.00
  157                 63.70    155.05     61.51      0.00
  159                 50.82    151.57     63.08      0.00
  161                 19.43    149.20     62.92      0.00
  163                 11.59    148.73     62.28      0.00
  164                  0.00    148.73     62.28      0.00
  166                  3.20    148.73     65.31      0.00
  167                 17.91    146.77     65.76      0.00
  169                  0.00    146.77     65.76      0.00
  171                 48.39    145.62     64.83      0.00
  173                  0.00    145.60     64.82      0.00
  177                 71.55    145.35     59.52      0.00
  179                  0.00    145.35     59.51      0.00
  181                  0.00    145.36     59.52      0.00
  183                  0.00    145.36     58.22      0.00
  184                  0.00    143.94     55.44      0.00
  185                 31.55    144.65     55.74      0.00
  187                  0.00    145.52     57.64      0.00
  189                132.74    145.83     61.46      0.00
  191                100.74    145.91     52.39      0.00
  193                 87.71    146.00     55.46      0.00
  195                  0.00    146.07     56.58      0.00
  197                 20.96    145.94     53.27      0.00
  199                146.76    139.49     61.31      0.00
  201                 54.87    138.60     60.01      0.00
  203               5067.97    138.39     59.10      0.00
  204                  0.00    145.21     53.82      0.00
  205                 80.39    139.48     51.34      0.00
  206                  0.00    138.62     59.63      0.00
  207                 85.35    138.72     56.21      0.00
  208                  0.00    138.50     53.08      0.00
  209                  1.07    138.30     60.79      0.00
  211                 10.66    138.23     56.86      0.00
  213                 17.15    138.18     56.84      0.00
  215                113.39    138.01     56.77      0.00
  217                 29.79    137.99     57.19      0.00
  219                 50.82    137.98     58.06      0.00
  225                 28.04    137.99     56.32      0.00
  229                 78.94    138.12     55.30      0.00
  231                 20.27    138.12     57.68      0.00
  237                 19.20    138.23     53.83      0.00
  239                 54.87    138.25     54.27      0.00
  241                  0.00    138.25     54.27      0.00
  243                  5.34    138.25     53.84      0.00
  247                 86.57    138.26     52.11      0.00
  249                  0.00    138.26     52.11      0.00
  251                 29.72    138.29     46.92      0.00
  253                 67.06    138.54     44.43      0.00
  255                 49.68    138.58     48.35      0.00
  257                  0.00    152.08     58.53      0.00
  259                  0.00    151.64     54.88      0.00
  261                  0.00    150.08     65.03      0.00
  263                  0.00    149.91     64.96      0.00
  265                  0.00    147.40     63.87      0.00
  267                  0.00    146.00     54.16      0.00
  269                  0.00    146.17     63.34      0.00
  271                  0.00    145.44     60.42      0.00
  273                  0.00    139.47     56.97      0.00
  275                  0.00    138.65     55.75      0.00
  River           -13155.23    220.00      0.00      0.00  Reservoir
  Lake                 0.00    167.00      0.00      0.00  Reservoir
  1                  263.93    145.10      5.72      0.00  Tank
  2                 -389.51    139.58     10.00      0.00  Tank
  3                 2206.51    158.21     12.66      0.00  Tank
   
   
  Link Results at 0:15:00 hrs:
  ----------------------------------------------
                       Flow  Velocity  Headloss
  Link                  gpm       fps   /1000ft
  ----------------------------------------------
  20               -2206.51      0.09      0.00
  40                -263.93      0.01      0.00
  50                 389.51      0.02      0.00
  60               13155.23      9.33      8.92
  101                  0.00      0.00      0.00
  103                184.48      0.29      0.03
  105               -418.11      1.19      0.50
  107                 49.83      0.14      0.01
  109                 20.64      0.03      0.00
  111               -263.98      0.75      0.22
  112                525.85      1.49      0.77
  113                -18.09      0.05      0.00
  114                134.68      0.86      0.45
  115                -17.38      0.11      0.01
  116                 91.99      0.26      0.03
  117                634.45      1.80      1.09
  119               -742.00      2.10      1.46
  120               1152.05      3.27      3.29
  121               1035.01      2.94      2.70
  122                369.18      2.36      2.89
  123               9901.67      4.49      1.75
  125              13155.23      5.97      2.97
  129               2833.17      2.01      0.60
  131               2568.08      1.82      0.50
  133              -2206.51      2.25      0.91
  135                339.85      0.24      0.01
  137                 52.58      0.08      0.00
  145                287.27      1.83      1.81
  147                280.02      1.79      1.73
  149               -582.66      3.72      6.72
  151               -575.03      3.67      6.56
  153                314.75      0.89      0.30
  155                348.73      0.99      0.36
  159               -359.25      1.02      0.38
  161               -392.55      2.51      3.23
  163               -154.67      0.44      0.08
  169                209.00      1.33      1.01
  171                415.58      1.18      0.50
  173               8117.40      3.68      1.21
  175               8053.70      3.66      1.20
  177               8002.88      3.63      1.18
  179               7737.23      3.51      1.11
  180                  3.20      0.01      0.00
  181                  3.20      0.01      0.00
  183               7527.57      3.42      1.06
  185                -17.91      0.11      0.01
  186                381.99      2.44      3.07
  187               6926.68      3.14      0.91
  189               5108.43      2.32      0.52
  191              -1769.87      1.26      0.25
  193              -1682.12      1.19      0.23
  195                241.70      0.69      0.18
  197                170.15      0.48      0.10
  199                -93.78      0.27      0.03
  201               -263.93      0.75      0.22
  202                599.98      3.83      7.09
  203                249.54      1.59      1.40
  204                599.98      1.70      0.98
  205                381.99      1.08      0.43
  207                343.32      0.97      0.35
  209                161.72      1.03      0.63
  211                582.97      1.65      0.93
  213                220.28      0.62      0.15
  215                208.76      0.59      0.14
  217               -236.60      0.67      0.18
  219               -246.21      0.70      0.19
  221                246.21      1.57      1.36
  223                 84.41      0.24      0.03
  225                105.37      0.30      0.04
  229               5108.43      3.62      1.53
  231               4887.14      3.47      1.41
  233               5067.97      3.59      1.75
  235                 74.53      0.21      0.02
  237                472.79      1.34      0.63
  238                273.07      0.77      0.23
  239               -114.37      0.32      0.05
  240                273.07      0.77      0.23
  241                273.07      0.77      0.23
  243                272.00      0.43      0.06
  245                267.30      0.43      0.05
  247                222.05      0.35      0.04
  249                108.66      0.17      0.01
  251                 50.82      0.11      0.00
  257                 28.04      0.08      0.00
  261                 28.10      0.18      0.02
  263                 20.27      0.06      0.00
  269                 -5.97      0.02      0.00
  271                 71.11      0.45      0.14
  273                -96.28      0.27      0.03
  275                -53.32      0.15      0.01
  277                  5.34      0.02      0.00
  281                -58.66      0.24      0.03
  283                -97.83      0.28      0.03
  285                 25.23      0.07      0.00
  287               -170.46      0.70      0.23
  289                389.51      1.59      1.07
  291                 67.06      0.27      0.04
  293                102.31      0.65      0.27
  295                -72.60      0.21      0.02
  297                486.22      3.10      4.80
  299                233.61      1.49      1.24
  301                233.61      1.49      1.24
  303                252.60      1.61      1.43
  305                148.23      0.42      0.07
  307                400.83      1.14      0.47
  309                194.88      1.24      0.88
  311                 13.89      0.04      0.00
  313                429.02      1.22      0.53
  315              -1923.82      1.36      0.29
  317                121.33      0.77      0.37
  319                -46.80      0.13      0.01
  321               7722.44      3.51      1.11
  323               -235.70      0.67      0.17
  325                153.95      0.98      0.57
  329              13155.23      5.97      3.01
  330                  0.00      0.00      0.00
  333                 -0.00      0.00      0.00
  10                   0.00      0.00      0.00  Pump
  335              13155.23      0.00    -93.47  Pump
   
   
  Node Results at 0:20:00 hrs:
  --------------------------------------------------------
                     Demand      Head  Pressure  Chemical
  Node                  gpm        ft       psi      mg/L
  --------------------------------------------------------
  10                   0.00    145.69     -0.57      0.00
  15                 575.03    130.22     42.56      0.00
  20                   0.00    158.28     12.69      0.00
  35                1682.12    145.38     57.58      0.00
  40                   0.00    145.13      5.73      0.00
  50                   0.00    139.45      9.94      0.00
  60                   0.00    209.02     90.57      0.00
  601                  0.00    302.50    131.07      0.00
  61                   0.00    302.50    131.07      0.00
  101                233.64    145.69     44.93      0.00
  103                163.84    145.65     44.48      0.00
  105                166.51    146.97     51.33      0.00
  107                 67.21    146.96     54.14      0.00
  109                284.62    145.65     54.31      0.00
  111                174.59    146.08     58.96      0.00
  113                 24.61    146.08     62.43      0.00
  115                 64.08    146.98     57.62      0.00
  117                144.78    150.16     59.17      0.00
  119                216.64    157.63     67.43      0.00
  120                  0.00    155.22     67.26      0.00
  121                 51.20    161.14     70.69      0.00
  123                  0.00    165.59     66.99      0.00
  125                 56.09    160.59     64.82      0.00
  127                 21.72    158.99     44.63      0.00
  129                  0.00    158.98     46.79      0.00
  131                 52.58    158.96     66.28      0.00
  139                  7.24    153.99     53.29      0.00
  141                 12.12    150.44     63.45      0.00
  143                  7.63    141.03     63.06      0.00
  145                 33.98    151.48     65.20      0.00
  147                 10.52    152.27     57.96      0.00
  149                 33.30    152.61     59.19      0.00
  151                177.71    155.90     53.04      0.00
  153                 54.33    156.00     38.91      0.00
  157                 63.70    155.09     61.53      0.00
  159                 50.82    151.61     63.09      0.00
  161                 19.43    149.24     62.93      0.00
  163                 11.59    148.76     62.29      0.00
  164                  0.00    148.76     62.29      0.00
  166                  3.20    148.76     65.32      0.00
  167                 17.91    146.80     65.78      0.00
  169                  0.00    146.80     65.78      0.00
  171                 48.39    145.65     64.84      0.00
  173                  0.00    145.62     64.83      0.00
  177                 71.55    145.38     59.53      0.00
  179                  0.00    145.38     59.53      0.00
  181                  0.00    145.39     59.53      0.00
  183                  0.00    145.38     58.23      0.00
  184                  0.00    143.96     55.44      0.00
  185                 31.55    144.67     55.75      0.00
  187                  0.00    145.54     57.65      0.00
  189                132.74    145.86     61.47      0.00
  191                100.74    145.94     52.40      0.00
  193                 87.71    146.03     55.48      0.00
  195                  0.00    146.10     56.59      0.00
  197                 20.96    145.97     53.28      0.00
  199                146.76    139.49     61.31      0.00
  201                 54.87    138.60     60.01      0.00
  203               5067.97    138.39     59.10      0.00
  204                  0.00    145.24     53.83      0.00
  205                 80.39    139.48     51.34      0.00
  206                  0.00    138.60     59.62      0.00
  207                 85.35    138.71     56.20      0.00
  208                  0.00    138.47     53.07      0.00
  209                  1.07    138.25     60.77      0.00
  211                 10.66    138.18     56.84      0.00
  213                 17.15    138.13     56.82      0.00
  215                113.39    137.96     56.75      0.00
  217                 29.79    137.95     57.17      0.00
  219                 50.82    137.94     58.03      0.00
  225                 28.04    137.94     56.30      0.00
  229                 78.94    138.07     55.28      0.00
  231                 20.27    138.07     57.66      0.00
  237                 19.20    138.18     53.81      0.00
  239                 54.87    138.19     54.25      0.00
  241                  0.00    138.19     54.25      0.00
  243                  5.34    138.19     53.81      0.00
  247                 86.57    138.21     52.09      0.00
  249                  0.00    138.21     52.09      0.00
  251                 29.72    138.23     46.90      0.00
  253                 67.06    138.46     44.40      0.00
  255                 49.68    138.51     48.32      0.00
  257                  0.00    152.11     58.55      0.00
  259                  0.00    151.68     54.89      0.00
  261                  0.00    150.11     65.04      0.00
  263                  0.00    149.95     64.97      0.00
  265                  0.00    147.43     63.88      0.00
  267                  0.00    146.03     54.18      0.00
  269                  0.00    146.20     63.35      0.00
  271                  0.00    145.46     60.43      0.00
  273                  0.00    139.48     56.97      0.00
  275                  0.00    138.65     55.74      0.00
  River           -13153.59    220.00      0.00      0.00  Reservoir
  Lake                 0.00    167.00      0.00      0.00  Reservoir
  1                  260.80    145.13      5.73      0.00  Tank
  2                 -378.20    139.45      9.94      0.00  Tank
  3                 2196.70    158.28     12.69      0.00  Tank
   
   
  Link Results at 0:20:00 hrs:
  ----------------------------------------------
                       Flow  Velocity  Headloss
  Link                  gpm       fps   /1000ft
  ----------------------------------------------
  20               -2196.70      0.09      0.00
  40                -260.80      0.01      0.00
  50                 378.20      0.02      0.00
  60               13153.59      9.33      8.92
  101                  0.00      0.00      0.00
  103                184.74      0.29      0.03
  105               -418.38      1.19      0.50
  107                 50.02      0.14      0.01
  109                 20.90      0.03      0.00
  111               -263.72      0.75      0.21
  112                526.47      1.49      0.77
  113                -17.58      0.05      0.00
  114                134.85      0.86      0.45
  115                -17.19      0.11      0.01
  116                 92.66      0.26      0.03
  117                634.90      1.80      1.09
  119               -742.59      2.11      1.46
  120               1152.82      3.27      3.30
  121               1035.72      2.94      2.70
  122                369.45      2.36      2.89
  123               9909.24      4.50      1.76
  125              13153.59      5.97      2.97
  129               2823.70      2.00      0.59
  131               2558.47      1.81      0.49
  133              -2196.70      2.24      0.90
  135                340.05      0.24      0.01
  137                 52.58      0.08      0.00
  145                287.47      1.83      1.82
  147                280.23      1.79      1.73
  149               -582.66      3.72      6.72
  151               -575.03      3.67      6.56
  153                314.54      0.89      0.30
  155                348.53      0.99      0.36
  159               -359.05      1.02      0.38
  161               -392.34      2.50      3.23
  163               -154.81      0.44      0.08
  169                209.14      1.33      1.01
  171                415.24      1.18      0.50
  173               8124.53      3.69      1.22
  175               8060.83      3.66      1.20
  177               8010.01      3.64      1.19
  179               7744.23      3.52      1.11
  180                  3.20      0.01      0.00
  181                  3.20      0.01      0.00
  183               7534.55      3.42      1.06
  185                -17.91      0.11      0.01
  186                382.76      2.44      3.08
  187               6933.56      3.15      0.91
  189               5118.38      2.32      0.52
  191              -1766.79      1.25      0.25
  193              -1682.12      1.19      0.23
  195                238.77      0.68      0.18
  197                167.22      0.47      0.09
  199                -93.58      0.27      0.03
  201               -260.80      0.74      0.21
  202                601.34      3.84      7.12
  203                250.13      1.60      1.40
  204                601.34      1.71      0.99
  205                382.76      1.09      0.43
  207                343.70      0.98      0.35
  209                161.95      1.03      0.63
  211                583.08      1.65      0.93
  213                220.82      0.63      0.15
  215                209.42      0.59      0.14
  217               -236.78      0.67      0.18
  219               -246.34      0.70      0.19
  221                246.34      1.57      1.36
  223                 84.78      0.24      0.03
  225                105.74      0.30      0.04
  229               5118.38      3.63      1.53
  231               4894.29      3.47      1.41
  233               5067.97      3.59      1.75
  235                 77.33      0.22      0.02
  237                476.61      1.35      0.64
  238                284.37      0.81      0.25
  239               -106.89      0.30      0.04
  240                284.37      0.81      0.25
  241                284.37      0.81      0.25
  243                283.30      0.45      0.06
  245                267.40      0.43      0.05
  247                222.05      0.35      0.04
  249                108.66      0.17      0.01
  251                 50.82      0.11      0.00
  257                 28.04      0.08      0.00
  261                 28.21      0.18      0.02
  263                 20.27      0.06      0.00
  269                  5.24      0.01      0.00
  271                 71.01      0.45      0.14
  273                -84.97      0.24      0.03
  275                -49.09      0.14      0.01
  277                  5.34      0.02      0.00
  281                -54.42      0.22      0.03
  283                -90.75      0.26      0.03
  285                 22.31      0.06      0.00
  287               -163.30      0.67      0.21
  289                378.20      1.54      1.02
  291                 67.06      0.27      0.04
  293                 98.17      0.63      0.25
  295                -68.45      0.19      0.02
  297                486.55      3.11      4.81
  299                233.78      1.49      1.24
  301                233.78      1.49      1.24
  303                252.78      1.61      1.43
  305                148.35      0.42      0.07
  307                401.12      1.14      0.47
  309                194.89      1.24      0.88
  311                 14.52      0.04      0.00
  313                428.98      1.22      0.53
  315              -1920.89      1.36      0.29
  317                121.67      0.78      0.37
  319                -44.34      0.13      0.01
  321               7729.44      3.51      1.11
  323               -228.55      0.65      0.16
  325                154.10      0.98      0.57
  329              13153.59      5.97      3.01
  330                  0.00      0.00      0.00
  333                 -0.00      0.00      0.00
  10                   0.00      0.00      0.00  Pump
  335              13153.59      0.00    -93.48  Pump
   
   
  Node Results at 0:25:00 hrs:
  --------------------------------------------------------
                     Demand      Head  Pressure  Chemical
  Node                  gpm        ft       psi      mg/L
  --------------------------------------------------------
  10                   0.00    145.72     -0.56      0.00
  15                 575.03    130.27     42.58      0.00
  20                   0.00    158.35     12.72      0.00
  35                1682.12    145.40     57.59      0.00
  40                   0.00    145.16      5.74      0.00
  50                   0.00    139.32      9.89      0.00
  60                   0.00    209.02     90.57      0.00
  601                  0.00    302.51    131.08      0.00
  61                   0.00    302.51    131.08      0.00
  101                233.64    145.72     44.94      0.00
  103                163.84    145.68     44.49      0.00
  105                166.51    147.00     51.35      0.00
  107                 67.21    146.99     54.16      0.00
  109                284.62    145.68     54.33      0.00
  111                174.59    146.11     58.98      0.00
  113                 24.61    146.11     62.44      0.00
  115                 64.08    147.01     57.63      0.00
  117                144.78    150.19     59.19      0.00
  119                216.64    157.67     67.45      0.00
  120                  0.00    155.26     67.27      0.00
  121                 51.20    161.19     70.71      0.00
  123                  0.00    165.64     67.01      0.00
  125                 56.09    160.64     64.84      0.00
  127                 21.72    159.05     44.65      0.00
  129                  0.00    159.04     46.82      0.00
  131                 52.58    159.03     66.31      0.00
  139                  7.24    154.05     53.32      0.00
  141                 12.12    150.49     63.47      0.00
  143                  7.63    141.09     63.08      0.00
  145                 33.98    151.53     65.23      0.00
  147                 10.52    152.33     57.99      0.00
  149                 33.30    152.66     59.21      0.00
  151                177.71    155.95     53.06      0.00
  153                 54.33    156.04     38.93      0.00
  157                 63.70    155.14     61.54      0.00
  159                 50.82    151.64     63.11      0.00
  161                 19.43    149.27     62.94      0.00
  163                 11.59    148.79     62.30      0.00
  164                  0.00    148.79     62.30      0.00
  166                  3.20    148.79     65.34      0.00
  167                 17.91    146.83     65.79      0.00
  169                  0.00    146.83     65.79      0.00
  171                 48.39    145.67     64.85      0.00
  173                  0.00    145.65     64.84      0.00
  177                 71.55    145.41     59.54      0.00
  179                  0.00    145.40     59.54      0.00
  181                  0.00    145.41     59.54      0.00
  183                  0.00    145.41     58.24      0.00
  184                  0.00    143.98     55.45      0.00
  185                 31.55    144.69     55.76      0.00
  187                  0.00    145.57     57.66      0.00
  189                132.74    145.88     61.48      0.00
  191                100.74    145.97     52.41      0.00
  193                 87.71    146.06     55.49      0.00
  195                  0.00    146.13     56.60      0.00
  197                 20.96    146.00     53.29      0.00
  199                146.76    139.49     61.31      0.00
  201                 54.87    138.60     60.01      0.00
  203               5067.97    138.39     59.10      0.00
  204                  0.00    145.26     53.84      0.00
[...]
  219                 74.38    136.75     57.52      0.00
  225                 41.04    136.75     55.79      0.00
  229                115.52    137.01     54.82      0.00
  231                 29.66    137.00     57.20      0.00
  237                 28.10    137.22     53.39      0.00
  239                 80.30    137.23     53.83      0.00
  241                  0.00    137.23     53.83      0.00
  243                  7.81    137.23     53.40      0.00
  247                126.68    137.25     51.67      0.00
  249                  0.00    137.25     51.67      0.00
  251                 43.49    137.29     46.49      0.00
  253                 98.14    137.64     44.04      0.00
  255                 72.70    137.73     47.98      0.00
  257                  0.00    150.93     58.03      0.00
  259                  0.00    150.43     54.35      0.00
  261                  0.00    148.63     64.40      0.00
  263                  0.00    148.43     64.31      0.00
  265                  0.00    147.70     64.00      0.00
  267                  0.00    145.81     54.08      0.00
  269                  0.00    146.40     63.43      0.00
  271                  0.00    146.01     60.67      0.00
  273                  0.00    139.42     56.94      0.00
  275                  0.00    138.57     55.71      0.00
  River           -13199.65    220.00      0.00      0.00  Reservoir
  Lake                 0.00    167.00      0.00      0.00  Reservoir
  1                 -790.02    147.95      6.95      0.00  Tank
  2                 -508.19    139.35      9.90      0.00  Tank
  3                  412.66    160.52     13.66      0.00  Tank
   
   
  Link Results at 23:55:00 hrs:
  ----------------------------------------------
                       Flow  Velocity  Headloss
  Link                  gpm       fps   /1000ft
  ----------------------------------------------
  20                -412.66      0.02      0.00
  40                 790.02      0.03      0.00
  50                 508.19      0.02      0.00
  60               13199.65      9.36      8.98
  101                  0.00      0.00      0.00
  103                126.22      0.20      0.01
  105               -468.13      1.33      0.62
  107                -17.03      0.05      0.00
  109               -113.54      0.18      0.01
  111               -530.06      1.50      0.78
  112                440.18      1.25      0.55
  113               -221.41      0.63      0.16
  114                 85.26      0.54      0.19
  115               -115.38      0.74      0.33
  116               -172.17      0.49      0.10
  117                694.77      1.97      1.29
  119               -734.60      2.08      1.43
  120               1258.62      3.57      3.88
  121               1116.34      3.17      3.11
  122                382.63      2.44      3.08
  123               9866.46      4.48      1.74
  125              11388.10      5.17      2.27
  129               1064.08      0.75      0.10
  131                770.13      0.55      0.05
  133               -412.66      0.42      0.04
  135                325.68      0.23      0.01
  137                 76.95      0.12      0.01
  145                248.73      1.59      1.39
  147                238.13      1.52      1.28
  149               -347.00      2.21      2.57
  151               -335.84      2.14      2.42
  153                126.60      0.36      0.06
  155                176.33      0.50      0.10
  159               -191.72      0.54      0.12
  161               -240.45      1.53      1.30
  163               -132.37      0.38      0.06
  169                211.87      1.35      1.03
  171                368.15      1.04      0.40
  173               7922.66      3.60      1.16
  175               7829.44      3.55      1.14
  177               7755.06      3.52      1.12
  179               7447.78      3.38      1.04
  180                  4.68      0.01      0.00
  181                  4.68      0.01      0.00
  183               7196.65      3.27      0.97
  185                -26.21      0.17      0.02
  186                299.60      1.91      1.96
  187               6526.53      2.96      0.81
  189               5321.00      2.42      0.56
  191              -1134.72      0.80      0.11
  193              -1528.98      1.08      0.19
  195               -285.28      0.81      0.25
  197               -389.99      1.11      0.44
  199                400.03      1.13      0.46
  201                790.02      2.24      1.64
  202                600.30      3.83      7.10
  203                346.86      2.21      2.57
  204                600.30      1.70      0.99
  205                299.60      0.85      0.27
  207                -53.17      0.15      0.01
  209                257.44      1.64      1.48
  211                643.92      1.83      1.12
  213                 42.17      0.12      0.01
  215               -136.41      0.39      0.06
  217               -344.22      0.98      0.35
  219               -278.85      0.79      0.24
  221                278.85      1.78      1.72
  223               -154.63      0.44      0.08
  225               -123.96      0.35      0.05
  229               5321.00      3.77      1.65
  231               4953.91      3.51      1.44
  233               4922.24      3.49      1.66
  235                152.31      0.43      0.08
  237                511.20      1.45      0.73
  238                461.43      1.31      0.61
  239                 75.14      0.21      0.02
  240                461.43      1.31      0.61
  241                461.43      1.31      0.61
  243                459.87      0.73      0.15
  245                393.50      0.63      0.11
  247                324.95      0.52      0.08
  249                159.01      0.25      0.02
  251                 74.38      0.16      0.01
  257                 41.04      0.12      0.01
  261                 43.46      0.28      0.05
  263                 29.66      0.08      0.00
  269                 50.76      0.14      0.01
  271                101.73      0.65      0.27
  273                -79.07      0.22      0.02
  275                -54.88      0.16      0.01
  277                  7.81      0.02      0.00
  281                -62.69      0.26      0.04
  283               -104.49      0.30      0.04
  285                 20.94      0.06      0.00
  287               -210.32      0.86      0.34
  289                508.19      2.08      1.76
  291                 98.14      0.40      0.08
  293                127.03      0.81      0.40
  295                -83.55      0.24      0.03
  297                524.91      3.35      5.54
  299                252.43      1.61      1.43
  301                252.43      1.61      1.43
  303                272.47      1.74      1.64
  305                169.86      0.48      0.10
  307                442.33      1.25      0.56
  309                229.49      1.46      1.20
  311               -365.90      1.04      0.39
  313                534.93      1.52      0.80
  315              -1243.70      0.88      0.13
  317                123.76      0.79      0.38
  319                 28.55      0.08      0.00
  321               7426.14      3.37      1.03
  323                -48.63      0.14      0.01
  325                108.98      0.70      0.30
  329              13199.65      5.99      3.03
  330                  0.00      0.00      0.00
  333                 -0.00      0.00      0.00
  10                   0.00      0.00      0.00  Pump
  335              13199.65      0.00    -93.07  Pump
   
   
  Node Results at 24:00:00 hrs:
  --------------------------------------------------------
                     Demand      Head  Pressure  Chemical
  Node                  gpm        ft       psi      mg/L
  --------------------------------------------------------
  10                   0.00    148.08      0.47      0.00
  15                 575.03    132.47     43.54      0.00
  20                   0.00    160.53     13.66      0.00
  35                1682.12    147.85     58.65      0.00
  40                   0.00    147.85      6.91      0.00
  50                   0.00    139.18      9.83      0.00
  60                   0.00    209.13     90.62      0.00
  601                  0.00    303.26    131.40      0.00
  61                   0.00    303.26    131.40      0.00
  101                233.64    148.08     45.96      0.00
  103                163.84    148.04     45.51      0.00
  105                166.51    149.35     52.36      0.00
  107                 67.21    149.33     55.17      0.00
  109                284.62    148.04     55.35      0.00
  111                174.59    148.47     60.00      0.00
  113                 24.61    148.48     63.47      0.00
  115                 64.08    149.35     58.65      0.00
  117                144.78    152.50     60.19      0.00
  119                216.64    159.89     68.41      0.00
  120                  0.00    157.51     68.25      0.00
  121                 51.20    163.37     71.65      0.00
  123                  0.00    167.78     67.93      0.00
  125                 56.09    162.82     65.78      0.00
  127                 21.72    161.24     45.60      0.00
  129                  0.00    161.23     47.76      0.00
  131                 52.58    161.21     67.25      0.00
  139                  7.24    156.24     54.27      0.00
  141                 12.12    152.69     64.43      0.00
  143                  7.63    143.29     64.04      0.00
  145                 33.98    153.74     66.18      0.00
  147                 10.52    154.53     58.94      0.00
  149                 33.30    154.87     60.17      0.00
  151                177.71    158.16     54.02      0.00
  153                 54.33    158.26     39.89      0.00
  157                 63.70    157.39     62.52      0.00
  159                 50.82    153.94     64.10      0.00
  161                 19.43    151.60     63.96      0.00
  163                 11.59    151.13     63.32      0.00
  164                  0.00    151.13     63.32      0.00
  166                  3.20    151.13     66.35      0.00
  167                 17.91    149.20     66.81      0.00
  169                  0.00    149.20     66.81      0.00
  171                 48.39    148.06     65.89      0.00
  173                  0.00    148.03     65.88      0.00
  177                 71.55    147.85     60.60      0.00
  179                  0.00    147.85     60.60      0.00
  181                  0.00    147.85     60.60      0.00
  183                  0.00    147.85     59.30      0.00
  184                  0.00    146.28     56.45      0.00
  185                 31.55    147.04     56.78      0.00
  187                  0.00    147.94     58.69      0.00
  189                132.74    148.28     62.52      0.00
  191                100.74    148.34     53.44      0.00
  193                 87.71    148.43     56.52      0.00
  195                  0.00    148.50     57.63      0.00
  197                 20.96    148.37     54.32      0.00
  199                146.76    141.51     62.18      0.00
  201                 54.87    140.57     60.86      0.00
  203               5067.97    140.36     59.95      0.00
  204                  0.00    147.63     54.87      0.00
  205                 80.39    141.48     52.20      0.00
  206                  0.00    140.27     60.35      0.00
  207                 85.35    140.56     57.01      0.00
  208                  0.00    139.93     53.70      0.00
  209                  1.07    139.35     61.25      0.00
  211                 10.66    139.16     57.26      0.00
  213                 17.15    139.09     57.24      0.00
  215                113.39    138.93     57.16      0.00
  217                 29.79    138.91     57.59      0.00
  219                 50.82    138.90     58.45      0.00
  225                 28.04    138.91     56.72      0.00
  229                 78.94    138.90     55.64      0.00
  231                 20.27    138.90     58.02      0.00
  237                 19.20    138.95     54.14      0.00
  239                 54.87    138.92     54.56      0.00
  241                  0.00    138.92     54.56      0.00
  243                  5.34    138.92     54.13      0.00
  247                 86.57    138.92     52.40      0.00
  249                  0.00    138.92     52.40      0.00
  251                 29.72    138.92     47.20      0.00
  253                 67.06    138.90     44.59      0.00
  255                 49.68    138.94     48.50      0.00
  257                  0.00    154.44     59.55      0.00
  259                  0.00    154.01     55.90      0.00
  261                  0.00    152.45     66.06      0.00
  263                  0.00    152.29     65.99      0.00
  265                  0.00    149.82     64.92      0.00
  267                  0.00    148.43     55.22      0.00
  269                  0.00    148.61     64.39      0.00
  271                  0.00    147.91     61.49      0.00
  273                  0.00    141.48     57.84      0.00
  275                  0.00    140.58     56.58      0.00
  River           -13079.86    220.00      0.00      0.00  Reservoir
  Lake                 0.00    167.00      0.00      0.00  Reservoir
  1                    1.29    147.85      6.91      0.00  Tank
  2                 -180.21    139.18      9.83      0.00  Tank
  3                 2184.49    160.53     13.66      0.00  Tank
   
   
  Link Results at 24:00:00 hrs:
  ----------------------------------------------
                       Flow  Velocity  Headloss
  Link                  gpm       fps   /1000ft
  ----------------------------------------------
  20               -2184.49      0.09      0.00
  40                  -1.29      0.00      0.00
  50                 180.21      0.01      0.00
  60               13079.86      9.28      8.83
  101                  0.00      0.00      0.00
  103                182.62      0.29      0.03
  105               -416.26      1.18      0.50
  107                 48.50      0.14      0.01
  109                 18.79      0.03      0.00
  111               -265.84      0.75      0.22
  112                521.55      1.48      0.76
  113                -22.37      0.06      0.00
  114                133.48      0.85      0.44
  115                -18.71      0.12      0.01
  116                 86.50      0.25      0.03
  117                631.27      1.79      1.08
  119               -737.81      2.09      1.44
  120               1146.53      3.25      3.27
  121               1030.01      2.92      2.68
  122                367.33      2.34      2.86
  123               9850.65      4.47      1.74
  125              13079.86      5.94      2.94
  129               2810.68      1.99      0.59
  131               2546.11      1.81      0.49
  133              -2184.49      2.23      0.89
  135                339.90      0.24      0.01
  137                 52.58      0.08      0.00
  145                287.31      1.83      1.81
  147                280.07      1.79      1.73
  149               -582.66      3.72      6.72
  151               -575.03      3.67      6.56
  153                314.70      0.89      0.30
  155                348.69      0.99      0.36
  159               -359.20      1.02      0.38
  161               -392.50      2.51      3.23
  163               -154.15      0.44      0.08
  169                208.48      1.33      1.00
  171                416.06      1.18      0.50
  173               8071.42      3.66      1.20
  175               8007.72      3.63      1.18
  177               7956.89      3.61      1.17
  179               7692.55      3.49      1.10
  180                  3.20      0.01      0.00
  181                  3.20      0.01      0.00
  183               7483.88      3.40      1.04
  185                -17.91      0.11      0.01
  186                388.45      2.48      3.17
  187               6891.29      3.13      0.90
  189               5293.18      2.40      0.55
  191              -1549.73      1.10      0.19
  193              -1682.12      1.19      0.23
  195                 17.41      0.05      0.00
  197                -54.14      0.15      0.01
  199                -55.43      0.16      0.01
  201                 -1.29      0.00      0.00
  202                624.54      3.99      7.64
  203                267.63      1.71      1.59
  204                624.54      1.77      1.06
  205                388.45      1.10      0.44
  207                323.06      0.92      0.31
  209                167.43      1.07      0.67
  211                574.68      1.63      0.91
  213                221.02      0.63      0.15
  215                198.36      0.56      0.13
  217               -239.22      0.68      0.18
  219               -244.91      0.69      0.19
  221                244.91      1.56      1.35
  223                 82.54      0.23      0.02
  225                103.50      0.29      0.04
  229               5293.18      3.75      1.63
  231               5039.98      3.57      1.49
  233               5067.97      3.59      1.75
  235                106.44      0.30      0.04
  237                522.78      1.48      0.76
  238                482.37      1.37      0.66
  239                 44.94      0.13      0.01
  240                482.37      1.37      0.66
  241                482.37      1.37      0.66
  243                481.30      0.77      0.16
  245                294.76      0.47      0.06
  247                222.05      0.35      0.04
  249                108.66      0.17      0.01
  251                 50.82      0.11      0.00
  257                 28.04      0.08      0.00
  261                 55.56      0.35      0.09
  263                 20.27      0.06      0.00
  269                175.87      0.50      0.10
  271                 43.65      0.28      0.06
  273                113.02      0.32      0.04
  275                 25.09      0.07      0.00
  277                  5.34      0.02      0.00
  281                 19.75      0.08      0.00
  283                 33.07      0.09      0.00
  285                -27.97      0.08      0.00
  287                -38.85      0.16      0.02
  289                180.21      0.74      0.26
  291                 67.06      0.27      0.04
  293                 24.62      0.16      0.02
  295                  5.09      0.01      0.00
  297                483.86      3.09      4.76
  299                232.48      1.48      1.23
  301                232.48      1.48      1.23
  303                251.38      1.60      1.42
  305                147.41      0.42      0.07
  307                398.79      1.13      0.46
  309                193.89      1.24      0.88
  311                  4.47      0.01      0.00
  313                424.88      1.21      0.52
  315              -1699.53      1.21      0.23
  317                127.80      0.82      0.40
  319                -21.36      0.06      0.00
  321               7677.77      3.48      1.10
  323                -82.86      0.24      0.03
  325                149.80      0.96      0.54
  329              13079.86      5.94      2.98
  330                  0.00      0.00      0.00
  333                 -0.00      0.00      0.00
  10                   0.00      0.00      0.00  Pump
  335              13079.86      0.00    -94.13  Pump
   
  Analysis ended Wed May 06 17:12:22 2020
