  Page 1                                    Wed May 06 17:13:57 2020

  ******************************************************************
  *                           E P A N E T                          *
  *                   Hydraulic and Water Quality                  *
  *                   Analysis for Pipe Networks                   *
  *                         Version 2.00.12                        *
  ******************************************************************
  
  Analysis begun Wed May 06 17:13:57 2020

   
  Hydraulic Status:
  -----------------------------------------------------------------------
     0:00:00: Balanced after 5 trials
     0:00:00: Reservoir River is emptying
     0:00:00: Reservoir Lake is closed
     0:00:00: Tank 1 is filling at 13.10 ft
     0:00:00: Tank 2 is emptying at 23.50 ft
     0:00:00: Tank 3 is filling at 29.00 ft
   
     0:05:00: Balanced after 2 trials
   
     0:10:00: Balanced after 2 trials
   
     0:15:00: Balanced after 2 trials
   
     0:20:00: Balanced after 2 trials
   
     0:25:00: Balanced after 2 trials
   
     0:30:00: Balanced after 2 trials
   
     0:35:00: Balanced after 2 trials
   
     0:40:00: Balanced after 2 trials
   
     0:45:00: Balanced after 2 trials
   
     0:50:00: Balanced after 1 trials
   
     0:55:00: Balanced after 1 trials
   
     1:00:00: Pump 10 changed by timer control
     1:00:00: Balanced after 7 trials
     1:00:00: Reservoir Lake is emptying
     1:00:00: Pump 10 changed from closed to open
   
     1:05:00: Balanced after 2 trials
   
     1:10:00: Balanced after 2 trials
   
     1:15:00: Balanced after 2 trials
   
     1:20:00: Balanced after 2 trials
   
     1:25:00: Balanced after 2 trials
   
     1:30:00: Balanced after 2 trials
   
     1:35:00: Balanced after 2 trials
   
     1:40:00: Balanced after 2 trials
   
     1:45:00: Balanced after 2 trials
   
     1:50:00: Balanced after 2 trials
   
     1:55:00: Balanced after 2 trials
   
     2:00:00: Balanced after 3 trials
     2:00:00: Tank 2 is filling at 22.21 ft
   
     2:05:00: Balanced after 1 trials
   
     2:10:00: Balanced after 1 trials
   
     2:15:00: Balanced after 1 trials
   
     2:20:00: Balanced after 1 trials
   
     2:25:00: Balanced after 1 trials
   
     2:30:00: Balanced after 1 trials
   
     2:35:00: Balanced after 1 trials
   
     2:40:00: Balanced after 1 trials
   
     2:45:00: Balanced after 1 trials
   
     2:50:00: Balanced after 1 trials
   
     2:55:00: Balanced after 1 trials
   
     3:00:00: Balanced after 2 trials
   
     3:05:00: Balanced after 1 trials
   
     3:10:00: Balanced after 1 trials
   
     3:15:00: Balanced after 1 trials
   
     3:20:00: Balanced after 1 trials
   
     3:25:00: Balanced after 1 trials
   
     3:30:00: Balanced after 1 trials
   
     3:35:00: Balanced after 1 trials
   
     3:40:00: Balanced after 1 trials
   
     3:45:00: Balanced after 1 trials
   
     3:50:00: Balanced after 1 trials
   
     3:52:37: Pump 335 changed by Tank 1 control
     3:52:37: Pipe 330 changed by Tank 1 control
     3:52:37: Balanced after 4 trials
     3:52:37: Tank 2 is emptying at 23.61 ft
     3:52:37: Tank 3 is emptying at 33.85 ft
     3:52:37: Pipe 330 changed from closed to open
     3:52:37: Pump 335 changed from open to closed
   
     3:55:00: Balanced after 1 trials
   
     4:00:00: Balanced after 3 trials
     4:00:00: Tank 2 is filling at 23.60 ft
     4:00:00: Tank 3 is filling at 33.83 ft
   
     4:05:00: Balanced after 2 trials
   
     4:10:00: Balanced after 2 trials
   
     4:15:00: Balanced after 2 trials
   
     4:20:00: Balanced after 2 trials
   
     4:25:00: Balanced after 2 trials
   
     4:30:00: Balanced after 2 trials
   
     4:35:00: Balanced after 2 trials
   
     4:40:00: Balanced after 2 trials
   
     4:45:00: Balanced after 2 trials
   
     4:50:00: Balanced after 2 trials
   
     4:55:00: Balanced after 2 trials
   
     5:00:00: Balanced after 4 trials
     5:00:00: Tank 1 is emptying at 19.99 ft
     5:00:00: Tank 2 is emptying at 24.62 ft
     5:00:00: Tank 3 is emptying at 34.03 ft
   
     5:05:00: Balanced after 1 trials
   
     5:10:00: Balanced after 1 trials
   
     5:15:00: Balanced after 1 trials
   
     5:20:00: Balanced after 1 trials
   
     5:25:00: Balanced after 1 trials
   
     5:30:00: Balanced after 1 trials
   
     5:35:00: Balanced after 1 trials
   
     5:40:00: Balanced after 1 trials
   
     5:45:00: Balanced after 1 trials
   
     5:50:00: Balanced after 1 trials
   
     5:55:00: Balanced after 1 trials
   
     6:00:00: Balanced after 4 trials
     6:00:00: Tank 1 is filling at 19.43 ft
     6:00:00: Tank 2 is filling at 24.04 ft
     6:00:00: Tank 3 is filling at 33.68 ft
   
     6:05:00: Balanced after 2 trials
   
     6:10:00: Balanced after 2 trials
   
     6:15:00: Balanced after 2 trials
   
     6:20:00: Balanced after 2 trials
   
     6:25:00: Balanced after 2 trials
   
     6:30:00: Balanced after 2 trials
   
     6:35:00: Balanced after 2 trials
   
     6:40:00: Balanced after 2 trials
   
     6:45:00: Balanced after 2 trials
   
     6:50:00: Balanced after 2 trials
   
     6:55:00: Balanced after 2 trials
   
     7:00:00: Balanced after 4 trials
     7:00:00: Tank 2 is emptying at 25.32 ft
   
     7:05:00: Balanced after 1 trials
   
     7:10:00: Balanced after 1 trials
   
     7:15:00: Balanced after 1 trials
   
     7:20:00: Balanced after 1 trials
   
     7:25:00: Balanced after 1 trials
   
     7:30:00: Balanced after 1 trials
   
     7:35:00: Balanced after 1 trials
   
     7:40:00: Balanced after 1 trials
   
     7:45:00: Balanced after 1 trials
   
     7:50:00: Balanced after 1 trials
   
     7:55:00: Balanced after 1 trials
   
     8:00:00: Balanced after 2 trials
     8:00:00: Tank 2 is filling at 25.29 ft
   
     8:05:00: Balanced after 1 trials
   
     8:10:00: Balanced after 1 trials
   
     8:15:00: Balanced after 1 trials
   
     8:20:00: Balanced after 1 trials
   
     8:25:00: Balanced after 1 trials
   
     8:30:00: Balanced after 1 trials
   
     8:35:00: Balanced after 1 trials
   
     8:40:00: Balanced after 1 trials
   
     8:45:00: Balanced after 1 trials
   
     8:50:00: Balanced after 1 trials
   
     8:55:00: Balanced after 1 trials
   
     9:00:00: Balanced after 3 trials
     9:00:00: Tank 3 is emptying at 34.52 ft
   
     9:05:00: Balanced after 2 trials
   
     9:10:00: Balanced after 2 trials
   
     9:15:00: Balanced after 2 trials
   
     9:20:00: Balanced after 2 trials
   
     9:25:00: Balanced after 2 trials
   
     9:30:00: Balanced after 2 trials
   
     9:35:00: Balanced after 2 trials
   
     9:40:00: Balanced after 2 trials
   
     9:45:00: Balanced after 2 trials
   
     9:50:00: Balanced after 2 trials
   
     9:55:00: Balanced after 2 trials
   
    10:00:00: Balanced after 4 trials
    10:00:00: Tank 1 is emptying at 21.34 ft
   
    10:05:00: Balanced after 1 trials
   
    10:10:00: Balanced after 1 trials
   
    10:15:00: Balanced after 1 trials
   
    10:20:00: Balanced after 1 trials
   
    10:25:00: Balanced after 1 trials
   
    10:30:00: Balanced after 1 trials
   
    10:35:00: Balanced after 1 trials
   
    10:40:00: Balanced after 1 trials
   
    10:45:00: Balanced after 1 trials
   
    10:50:00: Balanced after 1 trials
   
    10:55:00: Balanced after 1 trials
   
    11:00:00: Balanced after 3 trials
    11:00:00: Tank 2 is emptying at 26.35 ft
   
    11:05:00: Balanced after 1 trials
   
    11:10:00: Balanced after 1 trials
   
    11:15:00: Balanced after 1 trials
   
    11:20:00: Balanced after 1 trials
   
    11:25:00: Balanced after 1 trials
   
    11:30:00: Balanced after 1 trials
   
    11:35:00: Balanced after 1 trials
   
    11:40:00: Balanced after 1 trials
   
    11:45:00: Balanced after 1 trials
   
    11:50:00: Balanced after 1 trials
   
    11:55:00: Balanced after 1 trials
   
    12:00:00: Balanced after 4 trials
    12:00:00: Tank 1 is filling at 20.71 ft
    12:00:00: Tank 2 is filling at 26.01 ft
   
    12:05:00: Balanced after 2 trials
   
    12:10:00: Balanced after 2 trials
   
    12:15:00: Balanced after 2 trials
   
    12:20:00: Balanced after 2 trials
   
    12:25:00: Balanced after 2 trials
   
    12:30:00: Balanced after 2 trials
   
    12:35:00: Balanced after 2 trials
   
    12:40:00: Balanced after 2 trials
   
    12:45:00: Balanced after 2 trials
   
    12:50:00: Balanced after 2 trials
   
    12:55:00: Balanced after 2 trials
   
    13:00:00: Balanced after 3 trials
    13:00:00: Tank 1 is emptying at 21.13 ft
   
    13:05:00: Balanced after 1 trials
   
    13:10:00: Balanced after 1 trials
   
    13:15:00: Balanced after 1 trials
   
    13:20:00: Balanced after 1 trials
   
    13:25:00: Balanced after 1 trials
   
    13:30:00: Balanced after 1 trials
   
    13:35:00: Balanced after 1 trials
   
    13:40:00: Balanced after 1 trials
   
    13:45:00: Balanced after 1 trials
   
    13:50:00: Balanced after 1 trials
   
    13:55:00: Balanced after 1 trials
    13:55:00: Tank 2 is closed at 26.57 ft
   
    14:00:00: Balanced after 3 trials
    14:00:00: Tank 1 is filling at 20.88 ft
    14:00:00: Tank 2 is filling at 26.57 ft
   
    14:05:00: Balanced after 2 trials
   
    14:10:00: Balanced after 2 trials
   
    14:15:00: Balanced after 2 trials
   
    14:20:00: Balanced after 2 trials
   
    14:25:00: Balanced after 2 trials
   
    14:30:00: Balanced after 2 trials
   
    14:35:00: Balanced after 2 trials
   
    14:40:00: Balanced after 2 trials
   
    14:45:00: Balanced after 2 trials
   
    14:50:00: Balanced after 2 trials
   
    14:55:00: Balanced after 2 trials
   
    15:00:00: Pump 10 changed by timer control
    15:00:00: Balanced after 4 trials
    15:00:00: Reservoir Lake is closed
    15:00:00: Tank 1 is emptying at 21.05 ft
    15:00:00: Tank 2 is emptying at 26.84 ft
    15:00:00: Pump 10 changed from open to closed
   
    15:05:00: Balanced after 1 trials
   
    15:10:00: Balanced after 1 trials
   
    15:15:00: Balanced after 1 trials
   
    15:20:00: Balanced after 1 trials
   
    15:25:00: Balanced after 1 trials
   
    15:30:00: Balanced after 1 trials
   
    15:35:00: Balanced after 1 trials
   
    15:40:00: Balanced after 1 trials
   
    15:45:00: Balanced after 1 trials
   
    15:50:00: Balanced after 1 trials
   
    15:55:00: Balanced after 1 trials
   
    16:00:00: Balanced after 3 trials
   
    16:05:00: Balanced after 2 trials
   
    16:10:00: Balanced after 2 trials
   
    16:15:00: Balanced after 2 trials
   
    16:20:00: Balanced after 2 trials
   
    16:25:00: Balanced after 2 trials
   
    16:30:00: Balanced after 2 trials
   
    16:35:00: Balanced after 2 trials
   
    16:40:00: Balanced after 2 trials
   
    16:45:00: Balanced after 2 trials
   
    16:50:00: Balanced after 2 trials
   
    16:55:00: Balanced after 2 trials
   
    17:00:00: Balanced after 4 trials
    17:00:00: Tank 2 is filling at 25.66 ft
   
    17:05:00: Balanced after 2 trials
   
    17:10:00: Balanced after 2 trials
   
    17:15:00: Balanced after 2 trials
   
    17:20:00: Balanced after 2 trials
   
    17:25:00: Balanced after 2 trials
   
    17:30:00: Balanced after 2 trials
   
    17:35:00: Balanced after 2 trials
   
    17:40:00: Balanced after 2 trials
   
    17:45:00: Balanced after 2 trials
   
    17:50:00: Balanced after 2 trials
   
    17:55:00: Balanced after 2 trials
   
    18:00:00: Balanced after 4 trials
    18:00:00: Tank 2 is emptying at 26.27 ft
   
    18:05:00: Balanced after 1 trials
   
    18:10:00: Balanced after 1 trials
   
    18:15:00: Balanced after 1 trials
   
    18:20:00: Balanced after 1 trials
   
    18:25:00: Balanced after 1 trials
   
    18:30:00: Balanced after 1 trials
   
    18:35:00: Balanced after 1 trials
   
    18:40:00: Balanced after 1 trials
   
    18:45:00: Balanced after 1 trials
   
    18:50:00: Balanced after 1 trials
   
    18:55:00: Balanced after 1 trials
   
    19:00:00: Balanced after 4 trials
    19:00:00: Tank 1 is filling at 17.24 ft
    19:00:00: Tank 2 is filling at 25.44 ft
   
    19:05:00: Balanced after 2 trials
   
    19:10:00: Balanced after 2 trials
   
    19:15:00: Balanced after 2 trials
   
    19:20:00: Balanced after 2 trials
   
    19:25:00: Balanced after 2 trials
   
    19:30:00: Balanced after 2 trials
   
    19:35:00: Balanced after 2 trials
   
    19:40:00: Balanced after 2 trials
   
    19:45:00: Balanced after 2 trials
   
    19:50:00: Balanced after 2 trials
   
    19:55:00: Balanced after 2 trials
    19:55:00: Tank 1 is closed at 17.29 ft
   
    20:00:00: Balanced after 4 trials
    20:00:00: Tank 1 is emptying at 17.29 ft
    20:00:00: Tank 2 is emptying at 26.19 ft
   
    20:05:00: Balanced after 1 trials
   
    20:10:00: Balanced after 1 trials
   
    20:11:25: Pump 335 changed by Tank 1 control
    20:11:25: Pipe 330 changed by Tank 1 control
    20:11:25: Balanced after 5 trials
    20:11:25: Tank 3 is filling at 29.57 ft
    20:11:25: Pipe 330 changed from open to closed
    20:11:25: Pump 335 changed from closed to open
   
    20:15:00: Balanced after 2 trials
    20:15:00: Tank 1 is filling at 17.10 ft
   
    20:20:00: Balanced after 2 trials
   
    20:25:00: Balanced after 2 trials
   
    20:30:00: Balanced after 2 trials
   
    20:35:00: Balanced after 2 trials
   
    20:40:00: Balanced after 2 trials
   
    20:45:00: Balanced after 2 trials
   
    20:50:00: Balanced after 2 trials
   
    20:55:00: Balanced after 2 trials
   
    21:00:00: Balanced after 3 trials
    21:00:00: Tank 1 is emptying at 17.14 ft
   
    21:05:00: Balanced after 2 trials
   
    21:10:00: Balanced after 2 trials
   
    21:15:00: Balanced after 2 trials
    21:15:00: Tank 1 is filling at 17.13 ft
   
    21:20:00: Balanced after 2 trials
   
    21:25:00: Balanced after 2 trials
   
    21:30:00: Balanced after 2 trials
   
    21:35:00: Balanced after 2 trials
   
    21:40:00: Balanced after 2 trials
   
    21:45:00: Balanced after 2 trials
   
    21:50:00: Balanced after 2 trials
   
    21:55:00: Balanced after 2 trials
   
    22:00:00: Balanced after 3 trials
    22:00:00: Tank 1 is emptying at 17.18 ft
   
    22:05:00: Balanced after 2 trials
   
    22:10:00: Balanced after 2 trials
   
    22:15:00: Balanced after 2 trials
   
    22:20:00: Balanced after 2 trials
   
    22:25:00: Balanced after 2 trials
   
    22:30:00: Balanced after 2 trials
   
    22:35:00: Balanced after 2 trials
   
    22:40:00: Balanced after 2 trials
   
    22:45:00: Balanced after 2 trials
   
    22:50:00: Balanced after 2 trials
   
    22:55:00: Balanced after 2 trials
   
    23:00:00: Balanced after 4 trials
   
    23:05:00: Balanced after 2 trials
   
    23:10:00: Balanced after 2 trials
   
    23:15:00: Balanced after 2 trials
   
    23:20:00: Balanced after 2 trials
   
    23:25:00: Balanced after 2 trials
   
    23:30:00: Balanced after 2 trials
   
    23:35:00: Balanced after 2 trials
   
    23:40:00: Balanced after 2 trials
   
    23:45:00: Balanced after 2 trials
   
    23:50:00: Balanced after 2 trials
   
    23:55:00: Balanced after 2 trials
    23:55:00: Tank 3 is emptying at 31.55 ft
   
    24:00:00: Balanced after 4 trials
    24:00:00: Tank 1 is filling at 15.28 ft
    24:00:00: Tank 2 is filling at 21.79 ft
    24:00:00: Tank 3 is filling at 31.55 ft
   
   
  Node Results at 0:00:00 hrs:
  --------------------------------------------------------
                     Demand      Head  Pressure  Chemical
  Node                  gpm        ft       psi      mg/L
  --------------------------------------------------------
  10                   0.00    146.41     -0.25      0.00
  15                 646.38    123.69     39.73      0.00
  20                   0.00    158.00     12.57      0.00
  35                1680.33    146.70     58.15      0.00
  40                   0.00    145.00      5.68      0.00
  50                   0.00    140.00     10.18      0.00
  60                   0.00    209.03     90.57      0.00
  601                  0.00    302.59    131.11      0.00
  61                   0.00    302.59    131.11      0.00
  101                254.53    146.41     45.24      0.00
  103                178.49    146.38     44.80      0.00
  105                181.40    147.68     51.64      0.00
  107                 73.22    147.68     54.46      0.00
  109                310.08    146.39     54.63      0.00
  111                190.20    147.02     59.37      0.00
  113                 26.81    147.08     62.86      0.00
  115                 69.81    147.79     57.97      0.00
  117                157.73    150.78     59.44      0.00
  119                236.01    158.07     67.63      0.00
  120                  0.00    155.72     67.47      0.00
  121                 55.78    161.41     70.81      0.00
  123                  0.00    165.86     67.10      0.00
  125                 61.10    160.76     64.89      0.00
  127                 23.66    158.85     44.56      0.00
  129                  0.00    158.84     46.73      0.00
  131                 57.28    158.82     66.22      0.00
  139                  7.89    152.97     52.85      0.00
  141                 13.20    148.80     62.74      0.00
  143                  8.31    137.13     61.37      0.00
  145                 37.02    150.15     64.63      0.00
  147                 11.46    151.17     57.49      0.00
  149                 36.27    151.60     58.75      0.00
  151                193.60    155.79     52.99      0.00
  153                 59.19    155.88     38.86      0.00
  157                 69.40    155.74     61.81      0.00
  159                 55.37    152.53     63.49      0.00
  161                 21.17    150.35     63.41      0.00
  163                 12.62    149.92     62.79      0.00
  164                  0.00    149.92     62.79      0.00
  166                  3.48    149.92     65.82      0.00
  167                 19.51    148.13     66.35      0.00
  169                  0.00    148.13     66.35      0.00
  171                 52.72    147.11     65.47      0.00
  173                  0.00    147.09     65.47      0.00
  177                 77.95    146.67     60.08      0.00
  179                  0.00    146.63     60.07      0.00
  181                  0.00    146.70     60.10      0.00
  183                  0.00    146.64     58.77      0.00
  184                  0.00    145.68     56.19      0.00
  185                 34.37    146.15     56.40      0.00
  187                  0.00    146.76     58.17      0.00
  189                144.61    147.04     61.98      0.00
  191                109.75    146.98     52.86      0.00
  193                 95.56    147.08     55.93      0.00
  195                  0.00    147.14     57.04      0.00
  197                 22.83    146.99     53.72      0.00
  199                159.89    142.77     62.73      0.00
  201                 59.78    142.18     61.56      0.00
  203               3758.25    142.06     60.69      0.00
  204                  0.00    146.55     54.40      0.00
  205                 87.58    142.70     52.73      0.00
  206                  0.00    141.61     60.93      0.00
  207                 92.98    142.00     57.63      0.00
  208                  0.00    141.17     54.24      0.00
  209                  1.17    140.41     61.71      0.00
  211                 11.62    140.15     57.70      0.00
  213                 18.68    140.07     57.66      0.00
  215                123.53    139.88     57.58      0.00
  217                 32.45    139.86     58.00      0.00
  219                 55.37    139.85     58.86      0.00
  225                 30.55    139.85     57.13      0.00
  229                 86.00    139.80     56.03      0.00
  231                 22.08    139.80     58.41      0.00
  237                 20.92    139.84     54.53      0.00
  239                 59.78    139.80     54.94      0.00
  241                  0.00    139.80     54.94      0.00
  243                  5.82    139.80     54.51      0.00
  247                 94.31    139.79     52.77      0.00
  249                  0.00    139.79     52.77      0.00
  251                 32.37    139.79     47.57      0.00
  253                 73.06    139.75     44.95      0.00
  255                 54.12    139.80     48.88      0.00
  257                  0.00    152.69     58.79      0.00
  259                  0.00    152.27     55.15      0.00
  261                  0.00    150.74     65.31      0.00
  263                  0.00    150.58     65.25      0.00
  265                  0.00    148.70     64.43      0.00
  267                  0.00    147.10     54.64      0.00
  269                  0.00    147.45     63.89      0.00
  271                  0.00    146.81     61.02      0.00
  273                  0.00    142.71     58.37      0.00
  275                  0.00    142.17     57.27      0.00
  River           -13144.69    220.00      0.00      0.00  Reservoir
  Lake                 0.00    167.00      0.00      0.00  Reservoir
  1                  718.44    145.00      5.68      0.00  Tank
  2                 -163.84    140.00     10.18      0.00  Tank
  3                 2420.66    158.00     12.57      0.00  Tank
   
   
  Link Results at 0:00:00 hrs:
  ----------------------------------------------
                       Flow  Velocity  Headloss
  Link                  gpm       fps   /1000ft
  ----------------------------------------------
  20               -2420.66      0.10      0.00
  40                -718.44      0.03      0.00
  50                 163.84      0.01      0.00
  60               13144.69      9.32      8.91
  101                  0.00      0.00      0.00
  103                161.52      0.26      0.02
  105               -416.05      1.18      0.50
  107                 28.16      0.08      0.00
  109                -16.97      0.03      0.00
  111               -327.05      0.93      0.32
  112                483.71      1.37      0.66
  113                -91.10      0.26      0.03
  114                119.61      0.76      0.36
  115                -45.06      0.29      0.06
  116                  1.70      0.00      0.00
  117                625.61      1.77      1.06
  119               -718.19      2.04      1.37
  120               1139.83      3.23      3.23
  121               1021.63      2.90      2.64
  122                361.70      2.31      2.78
  123               9634.84      4.37      1.67
  125              13144.69      5.97      2.97
  129               3092.37      2.19      0.70
  131               2815.31      2.00      0.59
  133              -2420.66      2.47      1.08
  135                370.99      0.26      0.01
  137                 57.28      0.09      0.00
  145                313.70      2.00      2.13
  147                305.81      1.95      2.04
  149               -654.69      4.18      8.34
  151               -646.38      4.13      8.14
  153                362.08      1.03      0.39
  155                399.10      1.13      0.46
  159               -410.56      1.16      0.49
  161               -446.83      2.85      4.11
  163               -156.76      0.44      0.08
  169                215.95      1.38      1.07
  171                483.67      1.37      0.66
  173               7775.32      3.53      1.12
  175               7705.92      3.50      1.10
  177               7650.55      3.47      1.09
  179               7380.02      3.35      1.02
  180                  3.48      0.01      0.00
  181                  3.48      0.01      0.00
  183               7154.55      3.25      0.96
  185                -19.51      0.12      0.01
  186                313.44      2.00      2.13
  187               6513.93      2.96      0.81
  189               4233.87      1.92      0.36
  191              -2227.35      1.58      0.38
  193              -1680.33      1.19      0.23
  195                689.54      1.96      1.27
  197                611.59      1.73      1.02
  199               -106.85      0.30      0.04
  201               -718.44      2.04      1.37
  202                482.60      3.08      4.74
  203                203.53      1.30      0.96
  204                482.60      1.37      0.66
  205                313.44      0.89      0.30
  207                310.38      0.88      0.29
  209                151.09      0.96      0.55
  211                621.10      1.76      1.05
  213                162.36      0.46      0.09
  215                127.49      0.36      0.06
  217               -237.37      0.67      0.18
  219               -249.36      0.71      0.19
  221                249.36      1.59      1.39
  223                 34.73      0.10      0.01
  225                 57.56      0.16      0.01
  229               4233.87      3.00      1.08
  231               3917.11      2.78      0.93
  233               3758.25      2.67      1.01
  235                156.87      0.45      0.08
  237                455.06      1.29      0.59
  238                557.99      1.58      0.86
  239                195.91      0.56      0.12
  240                557.99      1.58      0.86
  241                557.99      1.58      0.86
  243                556.82      0.89      0.21
  245                327.96      0.52      0.08
  247                241.91      0.39      0.05
  249                118.38      0.19      0.01
  251                 55.37      0.12      0.01
  257                 30.55      0.09      0.00
  261                 67.37      0.43      0.12
  263                 22.08      0.06      0.00
  269                217.24      0.62      0.15
  271                 40.71      0.26      0.05
  273                155.61      0.44      0.08
  275                 39.49      0.11      0.01
  277                  5.82      0.02      0.00
  281                 33.68      0.14      0.01
  283                 56.34      0.16      0.01
  285                -39.72      0.11      0.01
  287                -20.92      0.09      0.00
  289                163.84      0.67      0.22
  291                 73.06      0.30      0.05
  293                 15.75      0.10      0.01
  295                 16.63      0.05      0.00
  297                479.90      3.06      4.69
  299                230.57      1.47      1.21
  301                230.57      1.47      1.21
  303                249.33      1.59      1.39
  305                145.71      0.41      0.07
  307                395.04      1.12      0.45
  309                209.37      1.34      1.01
  311                -81.87      0.23      0.02
  313                478.59      1.36      0.65
  315              -2369.87      1.68      0.43
  317                 96.83      0.62      0.24
  319                 60.04      0.17      0.01
  321               7363.91      3.34      1.01
  323                 99.08      0.28      0.04
  325                142.52      0.91      0.49
  329              13144.69      5.97      3.01
  330                  0.00      0.00      0.00
  333                 -0.00      0.00      0.00
  10                   0.00      0.00      0.00  Pump
  335              13144.69      0.00    -93.56  Pump
   
   
  Node Results at 0:05:00 hrs:
  --------------------------------------------------------
                     Demand      Head  Pressure  Chemical
  Node                  gpm        ft       psi      mg/L
  --------------------------------------------------------
  10                   0.00    146.47     -0.23      0.00
  15                 646.38    123.76     39.76      0.00
  20                   0.00    158.08     12.60      0.00
  35                1680.33    146.76     58.17      0.00
  40                   0.00    145.08      5.71      0.00
  50                   0.00    139.94     10.16      0.00
  60                   0.00    209.03     90.57      0.00
  601                  0.00    302.61    131.12      0.00
  61                   0.00    302.61    131.12      0.00
  101                254.53    146.47     45.27      0.00
  103                178.49    146.44     44.82      0.00
  105                181.40    147.74     51.67      0.00
  107                 73.22    147.74     54.48      0.00
  109                310.08    146.45     54.66      0.00
  111                190.20    147.09     59.40      0.00
  113                 26.81    147.14     62.89      0.00
  115                 69.81    147.85     58.00      0.00
  117                157.73    150.85     59.47      0.00
  119                236.01    158.14     67.65      0.00
  120                  0.00    155.78     67.50      0.00
  121                 55.78    161.48     70.83      0.00
  123                  0.00    165.92     67.13      0.00
  125                 61.10    160.83     64.92      0.00
  127                 23.66    158.92     44.60      0.00
  129                  0.00    158.91     46.76      0.00
  131                 57.28    158.89     66.25      0.00
  139                  7.89    153.04     52.88      0.00
  141                 13.20    148.86     62.77      0.00
  143                  8.31    137.19     61.40      0.00
  145                 37.02    150.22     64.66      0.00
  147                 11.46    151.24     57.51      0.00
  149                 36.27    151.66     58.78      0.00
  151                193.60    155.85     53.02      0.00
  153                 59.19    155.95     38.89      0.00
  157                 69.40    155.80     61.83      0.00
  159                 55.37    152.59     63.52      0.00
  161                 21.17    150.41     63.44      0.00
  163                 12.62    149.98     62.82      0.00
  164                  0.00    149.98     62.82      0.00
  166                  3.48    149.98     65.85      0.00
  167                 19.51    148.19     66.38      0.00
  169                  0.00    148.19     66.38      0.00
  171                 52.72    147.16     65.50      0.00
  173                  0.00    147.15     65.49      0.00
  177                 77.95    146.73     60.11      0.00
  179                  0.00    146.70     60.10      0.00
  181                  0.00    146.76     60.13      0.00
  183                  0.00    146.70     58.80      0.00
  184                  0.00    145.74     56.22      0.00
  185                 34.37    146.21     56.42      0.00
  187                  0.00    146.82     58.20      0.00
  189                144.61    147.10     62.00      0.00
  191                109.75    147.04     52.88      0.00
  193                 95.56    147.14     55.95      0.00
  195                  0.00    147.21     57.07      0.00
  197                 22.83    147.05     53.75      0.00
  199                159.89    142.82     62.75      0.00
  201                 59.78    142.23     61.58      0.00
  203               3758.25    142.11     60.71      0.00
  204                  0.00    146.61     54.42      0.00
  205                 87.58    142.75     52.75      0.00
  206                  0.00    141.63     60.94      0.00
  207                 92.98    142.03     57.64      0.00
  208                  0.00    141.18     54.24      0.00
  209                  1.17    140.40     61.70      0.00
  211                 11.62    140.14     57.69      0.00
  213                 18.68    140.06     57.65      0.00
  215                123.53    139.87     57.57      0.00
  217                 32.45    139.85     58.00      0.00
  219                 55.37    139.83     58.86      0.00
  225                 30.55    139.84     57.13      0.00
  229                 86.00    139.77     56.01      0.00
  231                 22.08    139.77     58.40      0.00
  237                 20.92    139.81     54.51      0.00
  239                 59.78    139.76     54.93      0.00
  241                  0.00    139.76     54.93      0.00
  243                  5.82    139.76     54.49      0.00
  247                 94.31    139.76     52.76      0.00
  249                  0.00    139.76     52.76      0.00
  251                 32.37    139.76     47.56      0.00
  253                 73.06    139.71     44.94      0.00
  255                 54.12    139.76     48.86      0.00
  257                  0.00    152.75     58.82      0.00
  259                  0.00    152.33     55.17      0.00
  261                  0.00    150.80     65.34      0.00
  263                  0.00    150.64     65.27      0.00
  265                  0.00    148.76     64.46      0.00
  267                  0.00    147.16     54.67      0.00
  269                  0.00    147.51     63.92      0.00
  271                  0.00    146.87     61.04      0.00
  273                  0.00    142.76     58.39      0.00
  275                  0.00    142.22     57.29      0.00
  River           -13142.50    220.00      0.00      0.00  Reservoir
  Lake                 0.00    167.00      0.00      0.00  Reservoir
  1                  712.87    145.08      5.71      0.00  Tank
  2                 -155.84    139.94     10.16      0.00  Tank
  3                 2416.04    158.08     12.60      0.00  Tank
   
   
  Link Results at 0:05:00 hrs:
  ----------------------------------------------
                       Flow  Velocity  Headloss
  Link                  gpm       fps   /1000ft
  ----------------------------------------------
  20               -2416.04      0.10      0.00
  40                -712.87      0.03      0.00
  50                 155.84      0.01      0.00
  60               13142.50      9.32      8.91
  101                  0.00      0.00      0.00
  103                161.59      0.26      0.02
  105               -416.12      1.18      0.50
  107                 28.21      0.08      0.00
  109                -16.90      0.03      0.00
  111               -326.97      0.93      0.32
  112                483.87      1.37      0.66
  113                -90.99      0.26      0.03
  114                119.66      0.76      0.36
  115                -45.01      0.29      0.06
  116                  1.85      0.01      0.00
  117                625.72      1.78      1.06
  119               -718.36      2.04      1.37
  120               1140.04      3.23      3.23
  121               1021.82      2.90      2.64
  122                361.77      2.31      2.78
  123               9637.06      4.37      1.67
  125              13142.50      5.97      2.96
  129               3087.88      2.19      0.70
  131               2810.78      1.99      0.59
  133              -2416.04      2.47      1.08
  135                371.07      0.26      0.01
  137                 57.28      0.09      0.00
  145                313.79      2.00      2.14
  147                305.89      1.95      2.04
  149               -654.69      4.18      8.34
  151               -646.38      4.13      8.14
  153                361.99      1.03      0.39
  155                399.02      1.13      0.46
  159               -410.48      1.16      0.49
  161               -446.75      2.85      4.11
  163               -156.81      0.44      0.08
  169                216.00      1.38      1.07
  171                483.54      1.37      0.66
  173               7777.46      3.53      1.12
  175               7708.06      3.50      1.10
  177               7652.70      3.47      1.09
  179               7382.15      3.35      1.02
  180                  3.48      0.01      0.00
  181                  3.48      0.01      0.00
  183               7156.71      3.25      0.96
  185                -19.51      0.12      0.01
  186                313.87      2.00      2.14
  187               6516.29      2.96      0.81
  189               4240.78      1.92      0.36
  191              -2222.79      1.58      0.38
  193              -1680.33      1.19      0.23
  195                684.98      1.94      1.26
  197                607.03      1.72      1.01
  199               -105.84      0.30      0.04
  201               -712.87      2.02      1.35
  202                483.69      3.09      4.76
  203                204.19      1.30      0.96
  204                483.69      1.37      0.66
  205                313.87      0.89      0.30
  207                310.03      0.88      0.29
  209                151.27      0.97      0.55
  211                620.91      1.76      1.05
  213                162.60      0.46      0.09
  215                127.52      0.36      0.06
  217               -237.48      0.67      0.18
  219               -249.37      0.71      0.19
  221                249.37      1.59      1.40
  223                 34.86      0.10      0.01
  225                 57.69      0.16      0.01
  229               4240.78      3.01      1.08
  231               3921.99      2.78      0.94
  233               3758.25      2.67      1.01
  235                158.91      0.45      0.08
  237                458.10      1.30      0.60
  238                565.99      1.61      0.88
  239                200.87      0.57      0.13
  240                565.99      1.61      0.88
  241                565.99      1.61      0.88
  243                564.82      0.90      0.22
  245                329.70      0.53      0.08
  247                241.91      0.39      0.05
  249                118.38      0.19      0.01
  251                 55.37      0.12      0.01
  257                 30.55      0.09      0.00
  261                 69.11      0.44      0.13
  263                 22.08      0.06      0.00
  269                223.51      0.63      0.16
  271                 38.98      0.25      0.04
  273                163.61      0.46      0.09
  275                 42.49      0.12      0.01
  277                  5.82      0.02      0.00
  281                 36.68      0.15      0.01
  283                 61.34      0.17      0.01
  285                -41.87      0.12      0.01
  287                -15.77      0.06      0.00
  289                155.84      0.64      0.20
  291                 73.06      0.30      0.05
  293                 12.89      0.08      0.01
  295                 19.48      0.06      0.00
  297                479.99      3.06      4.69
  299                230.61      1.47      1.21
  301                230.61      1.47      1.21
  303                249.38      1.59      1.40
  305                145.73      0.41      0.07
  307                395.11      1.12      0.45
  309                209.33      1.34      1.01
  311                -81.81      0.23      0.02
  313                478.39      1.36      0.65
  315              -2365.31      1.68      0.43
  317                 96.92      0.62      0.24
  319                 61.99      0.18      0.01
  321               7366.04      3.34      1.01
  323                103.96      0.29      0.04
  325                142.52      0.91      0.49
  329              13142.50      5.97      3.00
  330                  0.00      0.00      0.00
  333                 -0.00      0.00      0.00
  10                   0.00      0.00      0.00  Pump
  335              13142.50      0.00    -93.58  Pump
   
   
  Node Results at 0:10:00 hrs:
  --------------------------------------------------------
                     Demand      Head  Pressure  Chemical
  Node                  gpm        ft       psi      mg/L
  --------------------------------------------------------
  10                   0.00    146.53     -0.20      0.00
  15                 646.38    123.83     39.79      0.00
  20                   0.00    158.15     12.63      0.00
  35                1680.33    146.82     58.20      0.00
  40                   0.00    145.17      5.75      0.00
  50                   0.00    139.89     10.14      0.00
  60                   0.00    209.04     90.58      0.00
  601                  0.00    302.64    131.13      0.00
  61                   0.00    302.64    131.13      0.00
  101                254.53    146.53     45.29      0.00
  103                178.49    146.51     44.85      0.00
  105                181.40    147.80     51.69      0.00
  107                 73.22    147.80     54.51      0.00
  109                310.08    146.51     54.69      0.00
  111                190.20    147.15     59.43      0.00
  113                 26.81    147.20     62.91      0.00
  115                 69.81    147.91     58.02      0.00
  117                157.73    150.91     59.50      0.00
  119                236.01    158.20     67.68      0.00
  120                  0.00    155.84     67.53      0.00
  121                 55.78    161.54     70.86      0.00
  123                  0.00    165.99     67.16      0.00
  125                 61.10    160.89     64.95      0.00
  127                 23.66    159.00     44.63      0.00
  129                  0.00    158.98     46.79      0.00
  131                 57.28    158.96     66.28      0.00
  139                  7.89    153.11     52.91      0.00
  141                 13.20    148.93     62.80      0.00
  143                  8.31    137.26     61.43      0.00
  145                 37.02    150.29     64.69      0.00
  147                 11.46    151.30     57.54      0.00
  149                 36.27    151.73     58.81      0.00
  151                193.60    155.92     53.04      0.00
  153                 59.19    156.02     38.92      0.00
  157                 69.40    155.87     61.86      0.00
  159                 55.37    152.65     63.55      0.00
  161                 21.17    150.47     63.47      0.00
  163                 12.62    150.04     62.84      0.00
  164                  0.00    150.04     62.84      0.00
  166                  3.48    150.04     65.88      0.00
  167                 19.51    148.25     66.40      0.00
  169                  0.00    148.25     66.40      0.00
  171                 52.72    147.22     65.52      0.00
  173                  0.00    147.20     65.52      0.00
  177                 77.95    146.79     60.14      0.00
  179                  0.00    146.76     60.12      0.00
  181                  0.00    146.82     60.15      0.00
  183                  0.00    146.77     58.83      0.00
  184                  0.00    145.79     56.24      0.00
  185                 34.37    146.27     56.45      0.00
  187                  0.00    146.88     58.23      0.00
  189                144.61    147.16     62.03      0.00
  191                109.75    147.10     52.91      0.00
  193                 95.56    147.20     55.98      0.00
  195                  0.00    147.27     57.09      0.00
  197                 22.83    147.11     53.78      0.00
  199                159.89    142.86     62.77      0.00
  201                 59.78    142.27     61.60      0.00
  203               3758.25    142.15     60.73      0.00
  204                  0.00    146.67     54.45      0.00
  205                 87.58    142.79     52.77      0.00
  206                  0.00    141.66     60.95      0.00
  207                 92.98    142.07     57.66      0.00
  208                  0.00    141.20     54.25      0.00
  209                  1.17    140.39     61.70      0.00
  211                 11.62    140.13     57.68      0.00
  213                 18.68    140.05     57.65      0.00
  215                123.53    139.85     57.57      0.00
  217                 32.45    139.83     57.99      0.00
  219                 55.37    139.82     58.85      0.00
  225                 30.55    139.83     57.12      0.00
  229                 86.00    139.75     56.00      0.00
  231                 22.08    139.74     58.38      0.00
  237                 20.92    139.78     54.50      0.00
  239                 59.78    139.73     54.91      0.00
  241                  0.00    139.73     54.91      0.00
  243                  5.82    139.73     54.48      0.00
  247                 94.31    139.72     52.74      0.00
  249                  0.00    139.72     52.74      0.00
  251                 32.37    139.72     47.54      0.00
  253                 73.06    139.67     44.92      0.00
  255                 54.12    139.73     48.84      0.00
  257                  0.00    152.82     58.85      0.00
  259                  0.00    152.39     55.20      0.00
  261                  0.00    150.86     65.37      0.00
  263                  0.00    150.70     65.30      0.00
  265                  0.00    148.82     64.48      0.00
  267                  0.00    147.22     54.69      0.00
  269                  0.00    147.57     63.94      0.00
  271                  0.00    146.94     61.07      0.00
  273                  0.00    142.80     58.41      0.00
  275                  0.00    142.26     57.31      0.00
  River           -13140.31    220.00      0.00      0.00  Reservoir
  Lake                 0.00    167.00      0.00      0.00  Reservoir
  1                  707.46    145.17      5.75      0.00  Tank
  2                 -148.07    139.89     10.14      0.00  Tank
  3                 2411.50    158.15     12.63      0.00  Tank
   
   
  Link Results at 0:10:00 hrs:
  ----------------------------------------------
                       Flow  Velocity  Headloss
  Link                  gpm       fps   /1000ft
  ----------------------------------------------
  20               -2411.50      0.10      0.00
  40                -707.46      0.03      0.00
  50                 148.07      0.01      0.00
  60               13140.31      9.32      8.91
  101                  0.00      0.00      0.00
  103                161.66      0.26      0.02
  105               -416.19      1.18      0.50
  107                 28.25      0.08      0.00
  109                -16.83      0.03      0.00
  111               -326.91      0.93      0.32
  112                484.03      1.37      0.66
  113                -90.89      0.26      0.03
  114                119.71      0.76      0.36
  115                -44.97      0.29      0.06
  116                  2.00      0.01      0.00
  117                625.84      1.78      1.06
  119               -718.52      2.04      1.37
  120               1140.24      3.23      3.23
  121               1022.01      2.90      2.64
  122                361.85      2.31      2.78
  123               9639.22      4.38      1.67
  125              13140.31      5.96      2.96
  129               3083.46      2.19      0.70
  131               2806.31      1.99      0.59
  133              -2411.50      2.46      1.07
  135                371.15      0.26      0.01
  137                 57.28      0.09      0.00
  145                313.87      2.00      2.14
  147                305.98      1.95      2.04
  149               -654.69      4.18      8.34
  151               -646.38      4.13      8.14
  153                361.91      1.03      0.39
  155                398.93      1.13      0.46
  159               -410.39      1.16      0.49
  161               -446.67      2.85      4.11
  163               -156.86      0.44      0.08
  169                216.04      1.38      1.07
  171                483.41      1.37      0.66
  173               7779.55      3.53      1.12
  175               7710.15      3.50      1.10
  177               7654.78      3.47      1.09
  179               7384.22      3.35      1.02
  180                  3.48      0.01      0.00
  181                  3.48      0.01      0.00
  183               7158.81      3.25      0.96
  185                -19.51      0.12      0.01
  186                314.28      2.01      2.14
  187               6518.58      2.96      0.81
  189               4247.50      1.93      0.37
  191              -2218.37      1.57      0.38
  193              -1680.33      1.19      0.23
  195                680.56      1.93      1.24
  197                602.61      1.71      0.99
  199               -104.85      0.30      0.04
  201               -707.46      2.01      1.34
  202                484.74      3.09      4.78
  203                204.84      1.31      0.97
  204                484.74      1.38      0.66
  205                314.28      0.89      0.30
  207                309.69      0.88      0.29
  209                151.45      0.97      0.55
  211                620.71      1.76      1.05
  213                162.83      0.46      0.09
  215                127.55      0.36      0.06
  217               -237.59      0.67      0.18
  219               -249.39      0.71      0.19
  221                249.39      1.59      1.40
  223                 34.99      0.10      0.01
  225                 57.82      0.16      0.01
  229               4247.50      3.01      1.09
  231               3926.70      2.78      0.94
  233               3758.25      2.67      1.01
  235                160.90      0.46      0.09
  237                461.06      1.31      0.60
  238                573.76      1.63      0.91
  239                205.68      0.58      0.14
  240                573.76      1.63      0.91
  241                573.76      1.63      0.91
  243                572.59      0.91      0.22
  245                331.40      0.53      0.08
  247                241.91      0.39      0.05
  249                118.38      0.19      0.01
  251                 55.37      0.12      0.01
  257                 30.55      0.09      0.00
  261                 70.81      0.45      0.14
  263                 22.08      0.06      0.00
  269                229.57      0.65      0.17
  271                 37.27      0.24      0.04
  273                171.38      0.49      0.10
  275                 45.41      0.13      0.01
  277                  5.82      0.02      0.00
  281                 39.59      0.16      0.02
  283                 66.20      0.19      0.02
  285                -44.68      0.13      0.01
  287                -10.04      0.04      0.00
  289                148.07      0.60      0.18
  291                 73.06      0.30      0.05
  293                 10.86      0.07      0.00
  295                 21.52      0.06      0.00
  297                480.08      3.06      4.69
  299                230.65      1.47      1.21
  301                230.65      1.47      1.21
  303                249.43      1.59      1.40
  305                145.76      0.41      0.07
  307                395.18      1.12      0.45
  309                209.31      1.34      1.01
  311                -81.75      0.23      0.02
  313                478.20      1.36      0.65
  315              -2360.89      1.67      0.43
  317                 97.00      0.62      0.24
  319                 63.90      0.18      0.02
  321               7368.11      3.34      1.02
  323                108.67      0.31      0.04
  325                142.52      0.91      0.49
  329              13140.31      5.96      3.00
  330                  0.00      0.00      0.00
  333                 -0.00      0.00      0.00
  10                   0.00      0.00      0.00  Pump
  335              13140.31      0.00    -93.60  Pump
   
   
  Node Results at 0:15:00 hrs:
  --------------------------------------------------------
                     Demand      Head  Pressure  Chemical
  Node                  gpm        ft       psi      mg/L
  --------------------------------------------------------
  10                   0.00    146.60     -0.18      0.00
  15                 646.38    123.90     39.82      0.00
  20                   0.00    158.23     12.67      0.00
  35                1680.33    146.88     58.23      0.00
  40                   0.00    145.25      5.79      0.00
  50                   0.00    139.84     10.11      0.00
  60                   0.00    209.04     90.58      0.00
  601                  0.00    302.66    131.14      0.00
  61                   0.00    302.66    131.14      0.00
  101                254.53    146.60     45.32      0.00
  103                178.49    146.57     44.88      0.00
  105                181.40    147.87     51.72      0.00
  107                 73.22    147.86     54.54      0.00
  109                310.08    146.57     54.71      0.00
  111                190.20    147.21     59.45      0.00
  113                 26.81    147.26     62.94      0.00
  115                 69.81    147.97     58.05      0.00
  117                157.73    150.97     59.52      0.00
  119                236.01    158.27     67.71      0.00
  120                  0.00    155.91     67.55      0.00
  121                 55.78    161.61     70.89      0.00
  123                  0.00    166.05     67.18      0.00
  125                 61.10    160.96     64.98      0.00
  127                 23.66    159.07     44.66      0.00
  129                  0.00    159.06     46.82      0.00
  131                 57.28    159.04     66.31      0.00
  139                  7.89    153.18     52.94      0.00
  141                 13.20    149.00     62.83      0.00
  143                  8.31    137.33     61.46      0.00
  145                 37.02    150.35     64.72      0.00
  147                 11.46    151.37     57.57      0.00
  149                 36.27    151.80     58.84      0.00
  151                193.60    155.99     53.07      0.00
  153                 59.19    156.08     38.95      0.00
  157                 69.40    155.93     61.89      0.00
  159                 55.37    152.72     63.57      0.00
  161                 21.17    150.54     63.49      0.00
  163                 12.62    150.10     62.87      0.00
  164                  0.00    150.10     62.87      0.00
  166                  3.48    150.10     65.90      0.00
  167                 19.51    148.31     66.43      0.00
  169                  0.00    148.31     66.43      0.00
  171                 52.72    147.28     65.55      0.00
  173                  0.00    147.26     65.54      0.00
  177                 77.95    146.85     60.16      0.00
  179                  0.00    146.82     60.15      0.00
  181                  0.00    146.89     60.18      0.00
  183                  0.00    146.83     58.85      0.00
  184                  0.00    145.85     56.26      0.00
  185                 34.37    146.33     56.47      0.00
  187                  0.00    146.94     58.25      0.00
  189                144.61    147.22     62.06      0.00
  191                109.75    147.16     52.93      0.00
  193                 95.56    147.26     56.01      0.00
  195                  0.00    147.33     57.12      0.00
  197                 22.83    147.17     53.80      0.00
  199                159.89    142.91     62.79      0.00
  201                 59.78    142.32     61.62      0.00
  203               3758.25    142.20     60.75      0.00
  204                  0.00    146.72     54.48      0.00
  205                 87.58    142.84     52.79      0.00
  206                  0.00    141.68     60.96      0.00
  207                 92.98    142.10     57.67      0.00
  208                  0.00    141.21     54.25      0.00
  209                  1.17    140.39     61.70      0.00
  211                 11.62    140.11     57.68      0.00
  213                 18.68    140.03     57.64      0.00
  215                123.53    139.84     57.56      0.00
  217                 32.45    139.82     57.98      0.00
  219                 55.37    139.81     58.85      0.00
  225                 30.55    139.81     57.12      0.00
  229                 86.00    139.72     55.99      0.00
  231                 22.08    139.72     58.37      0.00
  237                 20.92    139.75     54.49      0.00
  239                 59.78    139.70     54.90      0.00
  241                  0.00    139.70     54.90      0.00
  243                  5.82    139.70     54.46      0.00
  247                 94.31    139.69     52.73      0.00
  249                  0.00    139.69     52.73      0.00
  251                 32.37    139.69     47.53      0.00
  253                 73.06    139.64     44.91      0.00
  255                 54.12    139.69     48.83      0.00
  257                  0.00    152.88     58.88      0.00
  259                  0.00    152.46     55.23      0.00
  261                  0.00    150.92     65.40      0.00
  263                  0.00    150.77     65.33      0.00
  265                  0.00    148.88     64.51      0.00
  267                  0.00    147.29     54.72      0.00
  269                  0.00    147.63     63.97      0.00
  271                  0.00    147.00     61.09      0.00
  273                  0.00    142.85     58.43      0.00
  275                  0.00    142.30     57.33      0.00
  River           -13138.12    220.00      0.00      0.00  Reservoir
  Lake                 0.00    167.00      0.00      0.00  Reservoir
  1                  702.18    145.25      5.79      0.00  Tank
  2                 -140.47    139.84     10.11      0.00  Tank
  3                 2406.99    158.23     12.67      0.00  Tank
   
   
  Link Results at 0:15:00 hrs:
  ----------------------------------------------
                       Flow  Velocity  Headloss
  Link                  gpm       fps   /1000ft
  ----------------------------------------------
  20               -2406.99      0.10      0.00
  40                -702.18      0.03      0.00
  50                 140.47      0.01      0.00
  60               13138.12      9.32      8.90
  101                  0.00      0.00      0.00
  103                161.73      0.26      0.02
  105               -416.26      1.18      0.50
  107                 28.29      0.08      0.00
  109                -16.76      0.03      0.00
  111               -326.84      0.93      0.32
  112                484.18      1.37      0.66
  113                -90.80      0.26      0.03
  114                119.76      0.76      0.36
  115                -44.93      0.29      0.06
  116                  2.15      0.01      0.00
  117                625.95      1.78      1.06
  119               -718.68      2.04      1.37
  120               1140.44      3.24      3.23
  121               1022.20      2.90      2.64
  122                361.92      2.31      2.78
  123               9641.34      4.38      1.67
  125              13138.12      5.96      2.96
  129               3079.08      2.18      0.70
  131               2801.89      1.99      0.58
  133              -2406.99      2.46      1.07
  135                371.24      0.26      0.01
  137                 57.28      0.09      0.00
  145                313.95      2.00      2.14
  147                306.06      1.95      2.04
  149               -654.69      4.18      8.34
  151               -646.38      4.13      8.14
  153                361.83      1.03      0.39
  155                398.85      1.13      0.46
  159               -410.31      1.16      0.49
  161               -446.58      2.85      4.10
  163               -156.90      0.45      0.08
  169                216.09      1.38      1.07
  171                483.28      1.37      0.66
  173               7781.60      3.53      1.12
  175               7712.20      3.50      1.10
  177               7656.83      3.48      1.09
  179               7386.25      3.35      1.02
  180                  3.48      0.01      0.00
  181                  3.48      0.01      0.00
  183               7160.87      3.25      0.96
  185                -19.51      0.12      0.01
  186                314.68      2.01      2.15
  187               6520.83      2.96      0.81
  189               4254.07      1.93      0.37
  191              -2214.05      1.57      0.38
  193              -1680.33      1.19      0.23
  195                676.23      1.92      1.23
  197                598.28      1.70      0.98
  199               -103.89      0.29      0.04
  201               -702.18      1.99      1.32
  202                485.78      3.10      4.80
  203                205.47      1.31      0.97
  204                485.78      1.38      0.67
  205                314.68      0.89      0.30
  207                309.36      0.88      0.29
  209                151.62      0.97      0.56
  211                620.53      1.76      1.05
  213                163.06      0.46      0.09
  215                127.58      0.36      0.06
  217               -237.69      0.67      0.18
  219               -249.41      0.71      0.19
  221                249.41      1.59      1.40
  223                 35.11      0.10      0.01
  225                 57.94      0.16      0.01
  229               4254.07      3.02      1.09
  231               3931.30      2.79      0.94
  233               3758.25      2.67      1.01
  235                162.88      0.46      0.09
  237                463.99      1.32      0.61
  238                581.36      1.65      0.93
  239                210.36      0.60      0.14
  240                581.36      1.65      0.93
  241                581.36      1.65      0.93
  243                580.20      0.93      0.23
  245                333.08      0.53      0.08
  247                241.91      0.39      0.05
  249                118.38      0.19      0.01
  251                 55.37      0.12      0.01
  257                 30.55      0.09      0.00
  261                 72.49      0.46      0.14
  263                 22.08      0.06      0.00
  269                235.50      0.67      0.17
  271                 35.59      0.23      0.04
  273                178.99      0.51      0.10
  275                 48.26      0.14      0.01
  277                  5.82      0.02      0.00
  281                 42.45      0.17      0.02
  283                 70.95      0.20      0.02
  285                -48.02      0.14      0.01
  287                 -3.84      0.02      0.00
  289                140.47      0.57      0.16
  291                 73.06      0.30      0.05
  293                  9.45      0.06      0.00
  295                 22.93      0.07      0.00
  297                480.17      3.06      4.69
  299                230.69      1.47      1.21
  301                230.69      1.47      1.21
  303                249.47      1.59      1.40
  305                145.78      0.41      0.07
  307                395.25      1.12      0.45
  309                209.28      1.34      1.01
  311                -81.69      0.23      0.02
  313                478.01      1.36      0.65
  315              -2356.56      1.67      0.42
  317                 97.08      0.62      0.24
  319                 65.79      0.19      0.02
  321               7370.14      3.35      1.02
  323                113.27      0.32      0.04
  325                142.51      0.91      0.49
  329              13138.12      5.96      3.00
  330                  0.00      0.00      0.00
  333                 -0.00      0.00      0.00
  10                   0.00      0.00      0.00  Pump
  335              13138.12      0.00    -93.62  Pump
   
   
  Node Results at 0:20:00 hrs:
  --------------------------------------------------------
                     Demand      Head  Pressure  Chemical
  Node                  gpm        ft       psi      mg/L
  --------------------------------------------------------
  10                   0.00    146.66     -0.15      0.00
  15                 646.38    123.97     39.85      0.00
  20                   0.00    158.31     12.70      0.00
  35                1680.33    146.94     58.25      0.00
  40                   0.00    145.33      5.82      0.00
  50                   0.00    139.79     10.09      0.00
  60                   0.00    209.04     90.58      0.00
  601                  0.00    302.68    131.15      0.00
  61                   0.00    302.68    131.15      0.00
  101                254.53    146.66     45.35      0.00
  103                178.49    146.63     44.90      0.00
  105                181.40    147.93     51.75      0.00
  107                 73.22    147.92     54.56      0.00
  109                310.08    146.63     54.74      0.00
  111                190.20    147.27     59.48      0.00
  113                 26.81    147.32     62.97      0.00
  115                 69.81    148.04     58.08      0.00
  117                157.73    151.03     59.55      0.00
  119                236.01    158.33     67.74      0.00
  120                  0.00    155.97     67.58      0.00
  121                 55.78    161.67     70.92      0.00
  123                  0.00    166.12     67.21      0.00
  125                 61.10    161.03     65.01      0.00
  127                 23.66    159.14     44.69      0.00
  129                  0.00    159.13     46.85      0.00
  131                 57.28    159.11     66.34      0.00
  139                  7.89    153.25     52.97      0.00
  141                 13.20    149.07     62.86      0.00
  143                  8.31    137.40     61.49      0.00
  145                 37.02    150.42     64.74      0.00
  147                 11.46    151.44     57.60      0.00
  149                 36.27    151.87     58.87      0.00
  151                193.60    156.05     53.10      0.00
  153                 59.19    156.15     38.97      0.00
  157                 69.40    155.99     61.92      0.00
  159                 55.37    152.78     63.60      0.00
  161                 21.17    150.60     63.52      0.00
  163                 12.62    150.16     62.90      0.00
  164                  0.00    150.16     62.90      0.00
  166                  3.48    150.16     65.93      0.00
  167                 19.51    148.37     66.46      0.00
  169                  0.00    148.37     66.46      0.00
  171                 52.72    147.34     65.58      0.00
  173                  0.00    147.32     65.57      0.00
  177                 77.95    146.91     60.19      0.00
  179                  0.00    146.88     60.18      0.00
  181                  0.00    146.95     60.21      0.00
  183                  0.00    146.89     58.88      0.00
  184                  0.00    145.91     56.29      0.00
  185                 34.37    146.39     56.50      0.00
  187                  0.00    147.00     58.28      0.00
  189                144.61    147.28     62.08      0.00
  191                109.75    147.23     52.96      0.00
  193                 95.56    147.32     56.03      0.00
  195                  0.00    147.39     57.15      0.00
  197                 22.83    147.23     53.83      0.00
  199                159.89    142.96     62.81      0.00
  201                 59.78    142.36     61.64      0.00
  203               3758.25    142.24     60.77      0.00
  204                  0.00    146.78     54.50      0.00
  205                 87.58    142.88     52.81      0.00
  206                  0.00    141.71     60.97      0.00
  207                 92.98    142.14     57.69      0.00
  208                  0.00    141.23     54.26      0.00
  209                  1.17    140.39     61.70      0.00
  211                 11.62    140.10     57.67      0.00
  213                 18.68    140.02     57.64      0.00
  215                123.53    139.83     57.55      0.00
  217                 32.45    139.81     57.98      0.00
  219                 55.37    139.80     58.84      0.00
  225                 30.55    139.80     57.11      0.00
  229                 86.00    139.70     55.98      0.00
  231                 22.08    139.69     58.36      0.00
  237                 20.92    139.72     54.48      0.00
  239                 59.78    139.67     54.88      0.00
  241                  0.00    139.67     54.88      0.00
  243                  5.82    139.67     54.45      0.00
  247                 94.31    139.66     52.71      0.00
  249                  0.00    139.66     52.71      0.00
  251                 32.37    139.65     47.51      0.00
  253                 73.06    139.60     44.89      0.00
  255                 54.12    139.66     48.81      0.00
  257                  0.00    152.94     58.90      0.00
  259                  0.00    152.52     55.25      0.00
  261                  0.00    150.99     65.42      0.00
  263                  0.00    150.83     65.35      0.00
  265                  0.00    148.94     64.54      0.00
  267                  0.00    147.35     54.75      0.00
  269                  0.00    147.69     64.00      0.00
  271                  0.00    147.06     61.12      0.00
  273                  0.00    142.89     58.45      0.00
  275                  0.00    142.35     57.35      0.00
  River           -13135.94    220.00      0.00      0.00  Reservoir
  Lake                 0.00    167.00      0.00      0.00  Reservoir
  1                  697.01    145.33      5.82      0.00  Tank
  2                 -133.01    139.79     10.09      0.00  Tank
  3                 2402.51    158.31     12.70      0.00  Tank
   
   
  Link Results at 0:20:00 hrs:
  ----------------------------------------------
                       Flow  Velocity  Headloss
  Link                  gpm       fps   /1000ft
  ----------------------------------------------
  20               -2402.51      0.10      0.00
  40                -697.01      0.03      0.00
  50                 133.01      0.01      0.00
  60               13135.94      9.32      8.90
  101                  0.00      0.00      0.00
  103                161.79      0.26      0.02
  105               -416.33      1.18      0.50
  107                 28.33      0.08      0.00
  109                -16.69      0.03      0.00
  111               -326.77      0.93      0.32
  112                484.34      1.37      0.66
  113                -90.70      0.26      0.03
  114                119.81      0.76      0.36
  115                -44.88      0.29      0.06
  116                  2.30      0.01      0.00
  117                626.06      1.78      1.06
  119               -718.84      2.04      1.38
  120               1140.64      3.24      3.23
  121               1022.38      2.90      2.64
  122                361.99      2.31      2.78
  123               9643.43      4.38      1.67
  125              13135.94      5.96      2.96
  129               3074.74      2.18      0.69
  131               2797.50      1.98      0.58
  133              -2402.51      2.45      1.07
  135                371.32      0.26      0.01
  137                 57.28      0.09      0.00
  145                314.03      2.00      2.14
  147                306.14      1.95      2.04
  149               -654.69      4.18      8.34
  151               -646.38      4.13      8.14
  153                361.75      1.03      0.39
  155                398.77      1.13      0.46
  159               -410.23      1.16      0.49
  161               -446.50      2.85      4.10
  163               -156.95      0.45      0.08
  169                216.13      1.38      1.07
  171                483.16      1.37      0.66
  173               7783.62      3.53      1.12
  175               7714.22      3.50      1.11
  177               7658.85      3.48      1.09
  179               7388.25      3.35      1.02
  180                  3.48      0.01      0.00
  181                  3.48      0.01      0.00
  183               7162.90      3.25      0.96
  185                -19.51      0.12      0.01
  186                315.08      2.01      2.15
  187               6523.04      2.96      0.81
  189               4260.51      1.93      0.37
  191              -2209.82      1.57      0.38
  193              -1680.33      1.19      0.23
  195                672.00      1.91      1.21
  197                594.06      1.69      0.97
  199               -102.95      0.29      0.04
  201               -697.01      1.98      1.30
  202                486.79      3.11      4.82
  203                206.08      1.32      0.98
  204                486.79      1.38      0.67
  205                315.08      0.89      0.30
  207                309.04      0.88      0.29
  209                151.80      0.97      0.56
  211                620.35      1.76      1.05
  213                163.28      0.46      0.09
  215                127.61      0.36      0.06
  217               -237.80      0.67      0.18
  219               -249.42      0.71      0.19
  221                249.42      1.59      1.40
  223                 35.23      0.10      0.01
  225                 58.07      0.16      0.01
  229               4260.51      3.02      1.09
  231               3935.79      2.79      0.94
  233               3758.25      2.67      1.01
  235                164.83      0.47      0.09
  237                466.88      1.32      0.62
  238                588.82      1.67      0.95
  239                214.93      0.61      0.15
  240                588.82      1.67      0.95
  241                588.82      1.67      0.95
  243                587.65      0.94      0.23
  245                334.75      0.53      0.08
  247                241.91      0.39      0.05
  249                118.38      0.19      0.01
  251                 55.37      0.12      0.01
  257                 30.55      0.09      0.00
  261                 74.16      0.47      0.15
  263                 22.08      0.06      0.00
  269                241.29      0.68      0.18
  271                 33.93      0.22      0.03
  273                186.45      0.53      0.11
  275                 51.07      0.14      0.01
  277                  5.82      0.02      0.00
  281                 45.25      0.18      0.02
  283                 75.60      0.21      0.02
  285                -52.16      0.15      0.01
  287                  3.11      0.01      0.00
  289                133.01      0.54      0.15
  291                 73.06      0.30      0.05
  293                  8.94      0.06      0.00
  295                 23.44      0.07      0.00
  297                480.25      3.07      4.70
  299                230.73      1.47      1.21
  301                230.73      1.47      1.21
  303                249.52      1.59      1.40
  305                145.81      0.41      0.07
  307                395.32      1.12      0.45
  309                209.25      1.34      1.01
  311                -81.63      0.23      0.02
  313                477.83      1.36      0.65
  315              -2352.33      1.67      0.42
  317                 97.16      0.62      0.24
  319                 67.66      0.19      0.02
  321               7372.15      3.35      1.02
  323                117.76      0.33      0.05
  325                142.51      0.91      0.49
  329              13135.94      5.96      3.00
  330                  0.00      0.00      0.00
  333                 -0.00      0.00      0.00
  10                   0.00      0.00      0.00  Pump
  335              13135.94      0.00    -93.64  Pump
   
   
  Node Results at 0:25:00 hrs:
  --------------------------------------------------------
                     Demand      Head  Pressure  Chemical
  Node                  gpm        ft       psi      mg/L
  --------------------------------------------------------
  10                   0.00    146.72     -0.12      0.00
  15                 646.38    124.04     39.88      0.00
  20                   0.00    158.38     12.73      0.00
  35                1680.33    147.00     58.28      0.00
  40                   0.00    145.42      5.86      0.00
  50                   0.00    139.75     10.07      0.00
  60                   0.00    209.05     90.58      0.00
  601                  0.00    302.70    131.16      0.00
  61                   0.00    302.70    131.16      0.00
  101                254.53    146.72     45.37      0.00
  103                178.49    146.69     44.93      0.00
  105                181.40    147.99     51.77      0.00
  107                 73.22    147.98     54.59      0.00
  109                310.08    146.69     54.76      0.00
  111                190.20    147.33     59.50      0.00
  113                 26.81    147.38     62.99      0.00
  115                 69.81    148.10     58.10      0.00
  117                157.73    151.10     59.58      0.00
  119                236.01    158.40     67.77      0.00
  120                  0.00    156.04     67.61      0.00
  121                 55.78    161.74     70.95      0.00
  123                  0.00    166.18     67.24      0.00
  125                 61.10    161.10     65.04      0.00
  127                 23.66    159.22     44.72      0.00
  129                  0.00    159.20     46.88      0.00
  131                 57.28    159.18     66.37      0.00
  139                  7.89    153.32     53.00      0.00
  141                 13.20    149.14     62.89      0.00
  143                  8.31    137.47     61.51      0.00
  145                 37.02    150.49     64.77      0.00
  147                 11.46    151.51     57.63      0.00
  149                 36.27    151.93     58.90      0.00
  151                193.60    156.12     53.13      0.00
  153                 59.19    156.21     39.00      0.00
  157                 69.40    156.06     61.94      0.00
  159                 55.37    152.84     63.63      0.00
  161                 21.17    150.66     63.55      0.00
  163                 12.62    150.22     62.92      0.00
  164                  0.00    150.22     62.92      0.00
  166                  3.48    150.22     65.96      0.00
  167                 19.51    148.43     66.48      0.00
  169                  0.00    148.43     66.48      0.00
  171                 52.72    147.40     65.60      0.00
  173                  0.00    147.38     65.59      0.00
  177                 77.95    146.97     60.22      0.00
  179                  0.00    146.94     60.20      0.00
  181                  0.00    147.01     60.23      0.00
  183                  0.00    146.95     58.91      0.00
  184                  0.00    145.96     56.31      0.00
[...]
  219                 73.14    135.37     56.92      0.00
  225                 40.36    135.38     55.20      0.00
  229                113.60    135.64     54.23      0.00
  231                 29.17    135.64     56.61      0.00
  237                 27.63    135.86     52.80      0.00
  239                 78.96    135.89     53.25      0.00
  241                  0.00    135.89     53.25      0.00
  243                  7.68    135.89     52.81      0.00
  247                124.57    135.92     51.09      0.00
  249                  0.00    135.92     51.09      0.00
  251                 42.76    135.97     45.92      0.00
  253                 96.50    136.46     43.53      0.00
  255                 71.49    136.55     47.47      0.00
  257                  0.00    150.34     57.78      0.00
  259                  0.00    149.82     54.08      0.00
  261                  0.00    147.95     64.11      0.00
  263                  0.00    147.75     64.02      0.00
  265                  0.00    146.64     63.54      0.00
  267                  0.00    144.70     53.60      0.00
  269                  0.00    145.27     62.94      0.00
  271                  0.00    144.81     60.15      0.00
  273                  0.00    137.75     56.22      0.00
  275                  0.00    136.83     54.95      0.00
  River           -13209.66    220.00      0.00      0.00  Reservoir
  Lake                 0.00    167.00      0.00      0.00  Reservoir
  1                 -897.79    147.29      6.67      0.00  Tank
  2                 -558.56    138.48      9.53      0.00  Tank
  3                  -16.24    160.55     13.67      0.00  Tank
   
   
  Link Results at 23:55:00 hrs:
  ----------------------------------------------
                       Flow  Velocity  Headloss
  Link                  gpm       fps   /1000ft
  ----------------------------------------------
  20                  16.24      0.00      0.00
  40                 897.79      0.04      0.00
  50                 558.56      0.02      0.00
  60               13209.66      9.37      8.99
  101                  0.00      0.00      0.00
  103                137.61      0.22      0.02
  105               -473.82      1.34      0.64
  107                 -8.73      0.02      0.00
  109                -98.15      0.16      0.01
  111               -507.73      1.44      0.72
  112                464.51      1.32      0.61
  113               -202.36      0.57      0.13
  114                 97.46      0.62      0.24
  115               -105.44      0.67      0.28
  116               -140.32      0.40      0.07
  117                704.70      2.00      1.33
  119               -759.62      2.15      1.52
  120               1281.40      3.64      4.01
  121               1137.82      3.23      3.22
  122                391.26      2.50      3.21
  123              10124.95      4.60      1.83
  125              11203.74      5.09      2.21
  129                613.84      0.44      0.04
  131                324.17      0.23      0.01
  133                 16.24      0.02      0.00
  135                309.16      0.22      0.01
  137                 75.67      0.12      0.01
  145                233.49      1.49      1.24
  147                223.07      1.42      1.13
  149               -283.04      1.81      1.76
  151               -272.07      1.74      1.64
  153                 77.41      0.22      0.02
  155                126.32      0.36      0.05
  159               -141.45      0.40      0.07
  161               -189.37      1.21      0.84
  163               -130.77      0.37      0.06
  169                208.95      1.33      1.01
  171                314.32      0.89      0.30
  173               8217.47      3.73      1.24
  175               8125.80      3.69      1.22
  177               8052.67      3.65      1.20
  179               7742.26      3.51      1.11
  180                  4.60      0.01      0.00
  181                  4.60      0.01      0.00
  183               7488.46      3.40      1.05
  185                -25.77      0.16      0.02
  186                326.54      2.08      2.30
  187               6805.01      3.09      0.88
  189               5532.10      2.51      0.60
  191              -1203.28      0.85      0.12
  193              -1769.86      1.26      0.25
  195               -448.32      1.27      0.57
  197               -551.28      1.56      0.84
  199                346.51      0.98      0.36
  201                897.79      2.55      2.08
  202                630.71      4.03      7.78
  203                349.57      2.23      2.61
  204                630.71      1.79      1.08
  205                326.54      0.93      0.32
  207                  3.06      0.01      0.00
  209                245.53      1.57      1.36
  211                657.67      1.87      1.17
  213                 81.01      0.23      0.02
  215                -99.81      0.28      0.04
  217               -348.23      0.99      0.36
  219               -282.44      0.80      0.24
  221                282.44      1.80      1.76
  223               -122.26      0.35      0.05
  225                -92.10      0.26      0.03
  229               5532.10      3.92      1.77
  231               5181.97      3.68      1.57
  233               5239.24      3.72      1.86
  235                138.93      0.39      0.07
  237                524.66      1.49      0.77
  238                394.91      1.12      0.45
  239                 -6.93      0.02      0.00
  240                394.91      1.12      0.45
  241                394.91      1.12      0.45
  243                393.37      0.63      0.11
  245                384.68      0.61      0.11
  247                319.54      0.51      0.08
  249                156.36      0.25      0.02
  251                 73.14      0.15      0.01
  257                 40.36      0.11      0.01
  261                 40.47      0.26      0.05
  263                 29.17      0.08      0.00
  269                 -6.66      0.02      0.00
  271                102.30      0.65      0.27
  273               -136.59      0.39      0.06
  275                -76.00      0.22      0.02
  277                  7.68      0.02      0.00
  281                -83.68      0.34      0.06
  283               -139.55      0.40      0.07
  285                 35.80      0.10      0.00
  287               -244.05      1.00      0.45
  289                558.56      2.28      2.09
  291                 96.50      0.39      0.08
  293                146.51      0.94      0.52
  295               -103.75      0.29      0.04
  297                534.85      3.41      5.73
  299                257.14      1.64      1.48
  301                257.14      1.64      1.48
  303                277.71      1.77      1.70
  305                169.85      0.48      0.10
  307                447.56      1.27      0.57
  309                232.52      1.48      1.23
  311               -332.33      0.94      0.33
  313                539.41      1.53      0.81
  315              -1321.54      0.94      0.15
  317                129.30      0.83      0.41
  319                  9.64      0.03      0.00
  321               7720.98      3.50      1.11
  323               -136.23      0.39      0.06
  325                118.26      0.75      0.35
  329              13209.66      6.00      3.03
  330                  0.00      0.00      0.00
  333                 -0.00      0.00      0.00
  10                   0.00      0.00      0.00  Pump
  335              13209.66      0.00    -92.99  Pump
   
   
  Node Results at 24:00:00 hrs:
  --------------------------------------------------------
                     Demand      Head  Pressure  Chemical
  Node                  gpm        ft       psi      mg/L
  --------------------------------------------------------
  10                   0.00    148.25      0.54      0.00
  15                 646.38    125.91     40.69      0.00
  20                   0.00    160.55     13.67      0.00
  35                1680.33    148.49     58.92      0.00
  40                   0.00    147.18      6.62      0.00
  50                   0.00    138.29      9.44      0.00
  60                   0.00    209.14     90.62      0.00
  601                  0.00    303.32    131.43      0.00
  61                   0.00    303.32    131.43      0.00
  101                254.53    148.25     46.04      0.00
  103                178.49    148.22     45.59      0.00
  105                181.40    149.54     52.45      0.00
  107                 73.22    149.53     55.26      0.00
  109                310.08    148.22     55.43      0.00
  111                190.20    148.85     60.16      0.00
  113                 26.81    148.89     63.65      0.00
  115                 69.81    149.64     58.77      0.00
  117                157.73    152.70     60.27      0.00
  119                236.01    160.13     68.52      0.00
  120                  0.00    157.73     68.34      0.00
  121                 55.78    163.54     71.73      0.00
  123                  0.00    167.94     68.00      0.00
  125                 61.10    162.96     65.84      0.00
  127                 23.66    161.28     45.62      0.00
  129                  0.00    161.27     47.78      0.00
  131                 57.28    161.25     67.27      0.00
  139                  7.89    155.28     53.85      0.00
  141                 13.20    151.01     63.70      0.00
  143                  8.31    139.34     62.33      0.00
  145                 37.02    152.34     65.58      0.00
  147                 11.46    153.34     58.43      0.00
  149                 36.27    153.77     59.69      0.00
  151                193.60    157.89     53.90      0.00
  153                 59.19    157.99     39.77      0.00
  157                 69.40    157.74     62.67      0.00
  159                 55.37    154.44     64.32      0.00
  161                 21.17    152.21     64.22      0.00
  163                 12.62    151.76     63.59      0.00
  164                  0.00    151.76     63.59      0.00
  166                  3.48    151.76     66.62      0.00
  167                 19.51    149.93     67.13      0.00
  169                  0.00    149.93     67.13      0.00
  171                 52.72    148.87     66.24      0.00
  173                  0.00    148.85     66.23      0.00
  177                 77.95    148.46     60.86      0.00
  179                  0.00    148.44     60.85      0.00
  181                  0.00    148.49     60.88      0.00
  183                  0.00    148.45     59.56      0.00
  184                  0.00    147.36     56.92      0.00
  185                 34.37    147.89     57.15      0.00
  187                  0.00    148.54     58.95      0.00
  189                144.61    148.84     62.76      0.00
  191                109.75    148.79     53.64      0.00
  193                 95.56    148.89     56.71      0.00
  195                  0.00    148.96     57.83      0.00
  197                 22.83    148.80     54.51      0.00
  199                159.89    144.17     63.34      0.00
  201                 59.78    143.55     62.15      0.00
  203               3758.25    143.42     61.28      0.00
  204                  0.00    148.31     55.16      0.00
  205                 87.58    144.03     53.31      0.00
  206                  0.00    142.33     61.24      0.00
  207                 92.98    143.04     58.08      0.00
  208                  0.00    141.52     54.39      0.00
  209                  1.17    140.11     61.58      0.00
  211                 11.62    139.64     57.47      0.00
  213                 18.68    139.54     57.43      0.00
  215                123.53    139.35     57.35      0.00
  217                 32.45    139.33     57.77      0.00
  219                 55.37    139.31     58.63      0.00
  225                 30.55    139.32     56.90      0.00
  229                 86.00    138.75     55.57      0.00
  231                 22.08    138.75     57.95      0.00
  237                 20.92    138.75     54.05      0.00
  239                 59.78    138.54     54.40      0.00
  241                  0.00    138.54     54.39      0.00
  243                  5.82    138.54     53.96      0.00
  247                 94.31    138.49     52.21      0.00
  249                  0.00    138.49     52.21      0.00
  251                 32.37    138.44     46.99      0.00
  253                 73.06    138.27     44.31      0.00
  255                 54.12    138.32     48.23      0.00
  257                  0.00    154.64     59.64      0.00
  259                  0.00    154.21     55.99      0.00
  261                  0.00    152.65     66.14      0.00
  263                  0.00    152.49     66.07      0.00
  265                  0.00    150.51     65.22      0.00
  267                  0.00    148.91     55.42      0.00
  269                  0.00    149.25     64.67      0.00
  271                  0.00    148.60     61.79      0.00
  273                  0.00    144.06     58.95      0.00
  275                  0.00    143.50     57.84      0.00
  River           -13074.20    220.00      0.00      0.00  Reservoir
  Lake                 0.00    167.00      0.00      0.00  Reservoir
  1                  622.93    147.18      6.62      0.00  Tank
  2                   54.90    138.29      9.44      0.00  Tank
  3                 2226.94    160.55     13.67      0.00  Tank
   
   
  Link Results at 24:00:00 hrs:
  ----------------------------------------------
                       Flow  Velocity  Headloss
  Link                  gpm       fps   /1000ft
  ----------------------------------------------
  20               -2226.94      0.09      0.00
  40                -622.93      0.03      0.00
  50                 -54.90      0.00      0.00
  60               13074.20      9.27      8.82
  101                  0.00      0.00      0.00
  103                165.41      0.26      0.02
  105               -419.94      1.19      0.51
  107                 30.62      0.09      0.00
  109                -13.08      0.02      0.00
  111               -323.15      0.92      0.31
  112                492.43      1.40      0.68
  113                -84.84      0.24      0.03
  114                122.46      0.78      0.37
  115                -42.60      0.27      0.05
  116                 10.81      0.03      0.00
  117                631.96      1.79      1.08
  119               -727.30      2.06      1.41
  120               1151.29      3.27      3.29
  121               1032.15      2.93      2.69
  122                365.70      2.33      2.83
  123               9748.30      4.42      1.70
  125              13074.20      5.93      2.94
  129               2904.41      2.06      0.62
  131               2625.17      1.86      0.52
  133              -2226.94      2.27      0.93
  135                374.57      0.27      0.01
  137                 57.28      0.09      0.00
  145                317.28      2.03      2.18
  147                309.39      1.97      2.08
  149               -654.69      4.18      8.34
  151               -646.38      4.13      8.14
  153                358.50      1.02      0.38
  155                395.52      1.12      0.45
  159               -406.98      1.15      0.48
  161               -443.25      2.83      4.05
  163               -158.95      0.45      0.08
  169                218.14      1.39      1.09
  171                477.90      1.36      0.65
  173               7883.09      3.58      1.15
  175               7813.69      3.55      1.13
  177               7758.33      3.52      1.12
  179               7486.11      3.40      1.05
  180                  3.48      0.01      0.00
  181                  3.48      0.01      0.00
  183               7260.55      3.30      0.99
  185                -19.51      0.12      0.01
  186                328.06      2.09      2.32
  187               6621.07      3.01      0.83
  189               4422.70      2.01      0.39
  191              -2145.65      1.52      0.36
  193              -1680.33      1.19      0.23
  195                609.55      1.73      1.01
  197                531.61      1.51      0.79
  199                -91.32      0.26      0.03
  201               -622.93      1.77      1.05
  202                512.51      3.27      5.30
  203                218.82      1.40      1.10
  204                512.51      1.45      0.73
  205                328.06      0.93      0.32
  207                310.14      0.88      0.29
  209                155.84      0.99      0.58
  211                619.98      1.76      1.05
  213                172.22      0.49      0.10
  215                134.86      0.38      0.06
  217               -240.89      0.68      0.18
  219               -251.04      0.71      0.20
  221                251.04      1.60      1.41
  223                 41.08      0.12      0.01
  225                 63.91      0.18      0.02
  229               4422.70      3.14      1.17
  231               4044.53      2.87      0.99
  233               3758.25      2.67      1.01
  235                218.29      0.62      0.15
  237                544.10      1.54      0.82
  238                776.73      2.20      1.59
  239                325.62      0.92      0.32
  240                776.73      2.20      1.59
  241                776.73      2.20      1.59
  243                775.57      1.24      0.39
  245                380.23      0.61      0.10
  247                241.91      0.39      0.05
  249                118.38      0.19      0.01
  251                 55.37      0.12      0.01
  257                 30.55      0.09      0.00
  261                119.64      0.76      0.36
  263                 22.08      0.06      0.00
  269                383.72      1.09      0.43
  271                -11.56      0.07      0.00
  273                374.36      1.06      0.41
  275                121.42      0.34      0.05
  277                  5.82      0.02      0.00
  281                115.61      0.47      0.11
  283                193.16      0.55      0.12
  285                -97.88      0.28      0.03
  287                119.18      0.49      0.12
  289                -54.90      0.22      0.03
  291                 73.06      0.30      0.05
  293                -62.90      0.40      0.11
  295                 95.28      0.27      0.03
  297                484.84      3.09      4.78
  299                232.94      1.49      1.23
  301                232.94      1.49      1.23
  303                251.90      1.61      1.42
  305                147.12      0.42      0.07
  307                399.02      1.13      0.46
  309                209.45      1.34      1.01
  311                -74.60      0.21      0.02
  313                475.74      1.35      0.64
  315              -2289.89      1.62      0.40
  317                 99.12      0.63      0.25
  319                119.17      0.34      0.05
  321               7470.01      3.39      1.04
  323                226.50      0.64      0.16
  325                144.24      0.92      0.51
  329              13074.20      5.93      2.98
  330                  0.00      0.00      0.00
  333                 -0.00      0.00      0.00
  10                   0.00      0.00      0.00  Pump
  335              13074.20      0.00    -94.18  Pump
   
  Analysis ended Wed May 06 17:13:58 2020
