  Page 1                                    Wed May 06 17:14:53 2020

  ******************************************************************
  *                           E P A N E T                          *
  *                   Hydraulic and Water Quality                  *
  *                   Analysis for Pipe Networks                   *
  *                         Version 2.00.12                        *
  ******************************************************************
  
  Analysis begun Wed May 06 17:14:53 2020

   
  Hydraulic Status:
  -----------------------------------------------------------------------
     0:00:00: Balanced after 5 trials
     0:00:00: Reservoir River is emptying
     0:00:00: Reservoir Lake is closed
     0:00:00: Tank 1 is filling at 13.10 ft
     0:00:00: Tank 2 is emptying at 23.50 ft
     0:00:00: Tank 3 is filling at 29.00 ft
   
     0:05:00: Balanced after 2 trials
   
     0:10:00: Balanced after 2 trials
   
     0:15:00: Balanced after 2 trials
   
     0:20:00: Balanced after 2 trials
   
     0:25:00: Balanced after 2 trials
   
     0:30:00: Balanced after 2 trials
   
     0:35:00: Balanced after 2 trials
   
     0:40:00: Balanced after 2 trials
   
     0:45:00: Balanced after 2 trials
   
     0:50:00: Balanced after 2 trials
   
     0:55:00: Balanced after 2 trials
   
     1:00:00: Pump 10 changed by timer control
     1:00:00: Balanced after 7 trials
     1:00:00: Reservoir Lake is emptying
     1:00:00: Pump 10 changed from closed to open
   
     1:05:00: Balanced after 1 trials
   
     1:10:00: Balanced after 1 trials
   
     1:15:00: Balanced after 1 trials
   
     1:20:00: Balanced after 1 trials
   
     1:25:00: Balanced after 1 trials
   
     1:30:00: Balanced after 1 trials
   
     1:35:00: Balanced after 1 trials
   
     1:40:00: Balanced after 1 trials
   
     1:45:00: Balanced after 1 trials
     1:45:00: Tank 2 is filling at 21.87 ft
   
     1:50:00: Balanced after 1 trials
   
     1:55:00: Balanced after 1 trials
   
     2:00:00: Balanced after 3 trials
     2:00:00: Tank 2 is emptying at 21.88 ft
   
     2:05:00: Balanced after 1 trials
   
     2:10:00: Balanced after 1 trials
   
     2:15:00: Balanced after 1 trials
   
     2:20:00: Balanced after 1 trials
   
     2:25:00: Balanced after 1 trials
   
     2:30:00: Balanced after 1 trials
   
     2:35:00: Balanced after 1 trials
   
     2:40:00: Balanced after 1 trials
   
     2:45:00: Balanced after 1 trials
   
     2:50:00: Balanced after 1 trials
   
     2:55:00: Balanced after 1 trials
     2:55:00: Tank 2 is filling at 21.77 ft
   
     3:00:00: Balanced after 3 trials
   
     3:05:00: Balanced after 1 trials
   
     3:10:00: Balanced after 1 trials
   
     3:15:00: Balanced after 1 trials
   
     3:20:00: Balanced after 1 trials
   
     3:25:00: Balanced after 1 trials
   
     3:30:00: Balanced after 1 trials
   
     3:35:00: Balanced after 1 trials
   
     3:40:00: Balanced after 1 trials
   
     3:45:00: Balanced after 1 trials
   
     3:50:00: Balanced after 1 trials
   
     3:55:00: Balanced after 1 trials
   
     4:00:00: Balanced after 3 trials
   
     4:05:00: Balanced after 1 trials
   
     4:10:00: Balanced after 1 trials
   
     4:15:00: Balanced after 1 trials
   
     4:16:05: Pump 335 changed by Tank 1 control
     4:16:05: Pipe 330 changed by Tank 1 control
     4:16:05: Balanced after 4 trials
     4:16:05: Pipe 330 changed from closed to open
     4:16:05: Pump 335 changed from open to closed
   
     4:20:00: Balanced after 1 trials
   
     4:25:00: Balanced after 2 trials
   
     4:30:00: Balanced after 2 trials
   
     4:35:00: Balanced after 2 trials
   
     4:40:00: Balanced after 2 trials
   
     4:45:00: Balanced after 2 trials
   
     4:50:00: Balanced after 2 trials
   
     4:55:00: Balanced after 2 trials
   
     5:00:00: Balanced after 3 trials
     5:00:00: Tank 3 is emptying at 34.26 ft
   
     5:05:00: Balanced after 2 trials
   
     5:10:00: Balanced after 2 trials
   
     5:15:00: Balanced after 2 trials
   
     5:20:00: Balanced after 2 trials
   
     5:25:00: Balanced after 2 trials
   
     5:30:00: Balanced after 2 trials
   
     5:35:00: Balanced after 2 trials
   
     5:40:00: Balanced after 2 trials
   
     5:45:00: Balanced after 2 trials
   
     5:50:00: Balanced after 2 trials
   
     5:55:00: Balanced after 2 trials
   
     6:00:00: Balanced after 3 trials
     6:00:00: Tank 3 is filling at 34.02 ft
   
     6:05:00: Balanced after 1 trials
   
     6:10:00: Balanced after 1 trials
   
     6:15:00: Balanced after 1 trials
   
     6:20:00: Balanced after 1 trials
   
     6:25:00: Balanced after 1 trials
   
     6:30:00: Balanced after 1 trials
   
     6:35:00: Balanced after 1 trials
   
     6:40:00: Balanced after 1 trials
   
     6:45:00: Balanced after 1 trials
   
     6:50:00: Balanced after 1 trials
   
     6:55:00: Balanced after 1 trials
   
     7:00:00: Balanced after 3 trials
   
     7:05:00: Balanced after 1 trials
   
     7:10:00: Balanced after 1 trials
   
     7:15:00: Balanced after 1 trials
   
     7:20:00: Balanced after 1 trials
   
     7:25:00: Balanced after 1 trials
   
     7:30:00: Balanced after 1 trials
   
     7:35:00: Balanced after 1 trials
   
     7:40:00: Balanced after 1 trials
   
     7:45:00: Balanced after 1 trials
   
     7:50:00: Balanced after 1 trials
   
     7:55:00: Balanced after 1 trials
   
     8:00:00: Balanced after 3 trials
   
     8:05:00: Balanced after 1 trials
   
     8:10:00: Balanced after 1 trials
   
     8:15:00: Balanced after 1 trials
   
     8:20:00: Balanced after 1 trials
   
     8:25:00: Balanced after 1 trials
   
     8:30:00: Balanced after 1 trials
   
     8:35:00: Balanced after 1 trials
   
     8:40:00: Balanced after 1 trials
   
     8:45:00: Balanced after 1 trials
   
     8:50:00: Balanced after 1 trials
   
     8:55:00: Balanced after 1 trials
   
     9:00:00: Balanced after 4 trials
     9:00:00: Tank 3 is emptying at 35.14 ft
   
     9:05:00: Balanced after 2 trials
   
     9:10:00: Balanced after 2 trials
   
     9:15:00: Balanced after 2 trials
   
     9:20:00: Balanced after 2 trials
   
     9:25:00: Balanced after 2 trials
   
     9:30:00: Balanced after 2 trials
   
     9:35:00: Balanced after 2 trials
   
     9:40:00: Balanced after 2 trials
   
     9:45:00: Balanced after 1 trials
   
     9:50:00: Balanced after 1 trials
   
     9:55:00: Balanced after 1 trials
   
    10:00:00: Balanced after 2 trials
   
    10:05:00: Balanced after 1 trials
   
    10:10:00: Balanced after 1 trials
   
    10:15:00: Balanced after 1 trials
   
    10:20:00: Balanced after 1 trials
   
    10:25:00: Balanced after 1 trials
   
    10:30:00: Balanced after 1 trials
   
    10:35:00: Balanced after 1 trials
    10:35:00: Tank 1 is closed at 22.43 ft
   
    10:40:00: Balanced after 1 trials
    10:40:00: Tank 1 is emptying at 22.43 ft
   
    10:45:00: Balanced after 1 trials
   
    10:50:00: Balanced after 1 trials
   
    10:55:00: Balanced after 1 trials
   
    11:00:00: Balanced after 3 trials
    11:00:00: Tank 1 is filling at 22.43 ft
   
    11:05:00: Balanced after 2 trials
   
    11:10:00: Balanced after 2 trials
   
    11:15:00: Balanced after 2 trials
   
    11:20:00: Balanced after 2 trials
   
    11:25:00: Balanced after 2 trials
   
    11:30:00: Balanced after 2 trials
   
    11:35:00: Balanced after 2 trials
   
    11:40:00: Balanced after 2 trials
   
    11:45:00: Balanced after 1 trials
    11:45:00: Tank 1 is emptying at 22.46 ft
   
    11:50:00: Balanced after 1 trials
   
    11:55:00: Balanced after 1 trials
   
    12:00:00: Balanced after 4 trials
    12:00:00: Tank 2 is emptying at 28.10 ft
   
    12:05:00: Balanced after 2 trials
   
    12:10:00: Balanced after 2 trials
   
    12:15:00: Balanced after 2 trials
   
    12:20:00: Balanced after 2 trials
   
    12:25:00: Balanced after 2 trials
   
    12:30:00: Balanced after 2 trials
   
    12:35:00: Balanced after 2 trials
   
    12:40:00: Balanced after 2 trials
   
    12:45:00: Balanced after 2 trials
   
    12:50:00: Balanced after 2 trials
   
    12:55:00: Balanced after 2 trials
   
    13:00:00: Balanced after 4 trials
    13:00:00: Tank 1 is filling at 21.46 ft
    13:00:00: Tank 2 is filling at 26.65 ft
   
    13:05:00: Balanced after 2 trials
   
    13:10:00: Balanced after 2 trials
   
    13:15:00: Balanced after 2 trials
   
    13:20:00: Balanced after 2 trials
   
    13:25:00: Balanced after 2 trials
   
    13:30:00: Balanced after 2 trials
   
    13:35:00: Balanced after 2 trials
   
    13:40:00: Balanced after 2 trials
   
    13:45:00: Balanced after 2 trials
   
    13:50:00: Balanced after 2 trials
   
    13:55:00: Balanced after 2 trials
   
    14:00:00: Balanced after 3 trials
   
    14:05:00: Balanced after 2 trials
   
    14:10:00: Balanced after 2 trials
   
    14:15:00: Balanced after 2 trials
   
    14:20:00: Balanced after 1 trials
   
    14:25:00: Balanced after 1 trials
   
    14:30:00: Balanced after 1 trials
   
    14:35:00: Balanced after 1 trials
   
    14:40:00: Balanced after 1 trials
   
    14:45:00: Balanced after 1 trials
   
    14:50:00: Balanced after 1 trials
   
    14:55:00: Balanced after 1 trials
   
    15:00:00: Pump 10 changed by timer control
    15:00:00: Balanced after 5 trials
    15:00:00: Reservoir Lake is closed
    15:00:00: Tank 1 is emptying at 22.18 ft
    15:00:00: Pump 10 changed from open to closed
   
    15:05:00: Balanced after 2 trials
   
    15:10:00: Balanced after 2 trials
   
    15:15:00: Balanced after 2 trials
   
    15:20:00: Balanced after 2 trials
   
    15:25:00: Balanced after 2 trials
   
    15:30:00: Balanced after 2 trials
   
    15:35:00: Balanced after 2 trials
   
    15:40:00: Balanced after 2 trials
   
    15:45:00: Balanced after 2 trials
   
    15:50:00: Balanced after 2 trials
   
    15:55:00: Balanced after 2 trials
   
    16:00:00: Balanced after 4 trials
    16:00:00: Tank 2 is emptying at 28.34 ft
   
    16:05:00: Balanced after 2 trials
   
    16:10:00: Balanced after 2 trials
   
    16:15:00: Balanced after 2 trials
   
    16:20:00: Balanced after 1 trials
   
    16:25:00: Balanced after 1 trials
   
    16:30:00: Balanced after 1 trials
   
    16:35:00: Balanced after 1 trials
   
    16:40:00: Balanced after 1 trials
   
    16:45:00: Balanced after 1 trials
   
    16:50:00: Balanced after 1 trials
   
    16:55:00: Balanced after 1 trials
   
    17:00:00: Balanced after 3 trials
   
    17:05:00: Balanced after 1 trials
   
    17:10:00: Balanced after 1 trials
   
    17:15:00: Balanced after 1 trials
   
    17:20:00: Balanced after 1 trials
   
    17:25:00: Balanced after 1 trials
   
    17:30:00: Balanced after 1 trials
   
    17:35:00: Balanced after 1 trials
   
    17:40:00: Balanced after 1 trials
   
    17:45:00: Balanced after 1 trials
   
    17:50:00: Balanced after 1 trials
   
    17:55:00: Balanced after 1 trials
   
    18:00:00: Balanced after 3 trials
    18:00:00: Tank 2 is filling at 26.54 ft
   
    18:05:00: Balanced after 1 trials
   
    18:10:00: Balanced after 1 trials
   
    18:15:00: Balanced after 1 trials
   
    18:20:00: Balanced after 1 trials
    18:20:00: Tank 2 is emptying at 26.56 ft
   
    18:25:00: Balanced after 1 trials
   
    18:30:00: Balanced after 1 trials
   
    18:35:00: Balanced after 1 trials
   
    18:40:00: Balanced after 1 trials
   
    18:45:00: Balanced after 1 trials
   
    18:50:00: Balanced after 1 trials
   
    18:55:00: Balanced after 1 trials
   
    19:00:00: Balanced after 3 trials
    19:00:00: Tank 2 is filling at 26.51 ft
   
    19:05:00: Balanced after 2 trials
   
    19:10:00: Balanced after 2 trials
   
    19:15:00: Balanced after 2 trials
   
    19:20:00: Balanced after 2 trials
   
    19:25:00: Balanced after 2 trials
   
    19:30:00: Balanced after 2 trials
   
    19:35:00: Balanced after 2 trials
   
    19:40:00: Balanced after 2 trials
   
    19:45:00: Balanced after 2 trials
   
    19:50:00: Balanced after 2 trials
   
    19:55:00: Balanced after 2 trials
   
    20:00:00: Balanced after 3 trials
    20:00:00: Tank 2 is emptying at 26.79 ft
   
    20:05:00: Balanced after 1 trials
   
    20:10:00: Balanced after 1 trials
   
    20:15:00: Balanced after 1 trials
   
    20:20:00: Balanced after 1 trials
   
    20:25:00: Balanced after 1 trials
   
    20:30:00: Balanced after 1 trials
   
    20:35:00: Balanced after 1 trials
   
    20:40:00: Balanced after 1 trials
   
    20:45:00: Balanced after 1 trials
   
    20:50:00: Balanced after 1 trials
   
    20:55:00: Balanced after 1 trials
   
    21:00:00: Balanced after 3 trials
    21:00:00: Tank 2 is filling at 26.01 ft
   
    21:05:00: Balanced after 2 trials
   
    21:08:24: Pump 335 changed by Tank 1 control
    21:08:24: Pipe 330 changed by Tank 1 control
    21:08:24: Balanced after 6 trials
    21:08:24: Tank 1 is filling at 17.10 ft
    21:08:24: Tank 3 is filling at 29.87 ft
    21:08:24: Pipe 330 changed from open to closed
    21:08:24: Pump 335 changed from closed to open
   
    21:10:00: Balanced after 1 trials
   
    21:15:00: Balanced after 1 trials
   
    21:20:00: Balanced after 1 trials
   
    21:25:00: Balanced after 1 trials
   
    21:30:00: Balanced after 1 trials
   
    21:35:00: Balanced after 1 trials
   
    21:40:00: Balanced after 1 trials
   
    21:45:00: Balanced after 1 trials
   
    21:50:00: Balanced after 1 trials
   
    21:55:00: Balanced after 1 trials
   
    22:00:00: Balanced after 4 trials
    22:00:00: Tank 1 is emptying at 17.87 ft
    22:00:00: Tank 2 is emptying at 26.67 ft
   
    22:05:00: Balanced after 2 trials
   
    22:10:00: Balanced after 2 trials
   
    22:15:00: Balanced after 2 trials
   
    22:20:00: Balanced after 2 trials
   
    22:25:00: Balanced after 2 trials
   
    22:30:00: Balanced after 2 trials
   
    22:35:00: Balanced after 2 trials
   
    22:40:00: Balanced after 2 trials
   
    22:45:00: Balanced after 2 trials
   
    22:50:00: Balanced after 2 trials
   
    22:55:00: Balanced after 2 trials
   
    23:00:00: Balanced after 3 trials
   
    23:05:00: Balanced after 2 trials
   
    23:10:00: Balanced after 2 trials
   
    23:15:00: Balanced after 2 trials
   
    23:20:00: Balanced after 2 trials
   
    23:25:00: Balanced after 2 trials
   
    23:30:00: Balanced after 2 trials
   
    23:35:00: Balanced after 2 trials
   
    23:40:00: Balanced after 2 trials
   
    23:45:00: Balanced after 2 trials
   
    23:50:00: Balanced after 2 trials
   
    23:55:00: Balanced after 2 trials
   
    24:00:00: Balanced after 4 trials
    24:00:00: Tank 1 is filling at 16.09 ft
   
   
  Node Results at 0:00:00 hrs:
  --------------------------------------------------------
                     Demand      Head  Pressure  Chemical
  Node                  gpm        ft       psi      mg/L
  --------------------------------------------------------
  10                   0.00    144.00     -1.30      0.00
  15                 610.77    125.69     40.60      0.00
  20                   0.00    158.00     12.57      0.00
  35                1400.79    145.37     57.57      0.00
  40                   0.00    145.00      5.68      0.00
  50                   0.00    140.00     10.18      0.00
  60                   0.00    208.99     90.56      0.00
  601                  0.00    302.32    131.00      0.00
  61                   0.00    302.32    131.00      0.00
  101                302.02    144.00     44.20      0.00
  103                211.79    143.98     43.75      0.00
  105                215.24    145.45     50.67      0.00
  107                 86.88    145.45     53.49      0.00
  109                367.93    143.99     53.60      0.00
  111                225.68    145.08     58.53      0.00
  113                 31.82    145.21     62.06      0.00
  115                 82.84    145.79     57.11      0.00
  117                187.16    148.94     58.64      0.00
  119                280.05    157.08     67.19      0.00
  120                  0.00    154.43     66.92      0.00
  121                 66.19    160.63     70.47      0.00
  123                  0.00    165.10     66.77      0.00
  125                 72.50    160.10     64.61      0.00
  127                 28.08    158.62     44.47      0.00
  129                  0.00    158.61     46.63      0.00
  131                 67.97    158.58     66.11      0.00
  139                  9.37    152.60     52.69      0.00
  141                 15.66    148.36     62.55      0.00
  143                  9.86    137.79     61.65      0.00
  145                 43.93    149.49     64.34      0.00
  147                 13.59    150.38     57.14      0.00
  149                 43.04    150.76     58.39      0.00
  151                229.72    154.64     52.49      0.00
  153                 70.23    154.74     38.36      0.00
  157                 82.35    154.63     61.33      0.00
  159                 65.70    151.28     62.95      0.00
  161                 25.12    149.01     62.83      0.00
  163                 14.98    148.55     62.20      0.00
  164                  0.00    148.55     62.20      0.00
  166                  4.13    148.55     65.23      0.00
  167                 23.15    146.70     65.73      0.00
  169                  0.00    146.70     65.73      0.00
  171                 62.55    145.65     64.84      0.00
  173                  0.00    145.62     64.83      0.00
  177                 92.49    145.36     59.52      0.00
  179                  0.00    145.34     59.51      0.00
  181                  0.00    145.38     59.53      0.00
  183                  0.00    145.33     58.21      0.00
  184                  0.00    143.87     55.41      0.00
  185                 40.78    144.45     55.66      0.00
  187                  0.00    145.01     57.42      0.00
  189                171.59    145.45     61.29      0.00
  191                130.22    145.11     52.04      0.00
  193                113.38    145.26     55.14      0.00
  195                  0.00    145.34     56.26      0.00
  197                 27.09    145.09     52.90      0.00
  199                189.72    140.27     61.65      0.00
  201                 70.93    139.54     60.42      0.00
  203               4398.49    139.37     59.52      0.00
  204                  0.00    144.81     53.65      0.00
  205                103.92    140.23     51.66      0.00
  206                  0.00    139.28     59.92      0.00
  207                110.33    139.51     56.55      0.00
  208                  0.00    139.02     53.31      0.00
  209                  1.38    138.58     60.91      0.00
  211                 13.79    138.43     56.95      0.00
  213                 22.16    138.34     56.91      0.00
  215                146.58    138.07     56.79      0.00
  217                 38.51    138.04     57.22      0.00
  219                 65.70    138.03     58.07      0.00
  225                 36.25    138.04     56.34      0.00
  229                102.05    138.24     55.35      0.00
  231                 26.20    138.23     57.73      0.00
  237                 24.82    138.40     53.90      0.00
  239                 70.93    138.41     54.34      0.00
  241                  0.00    138.41     54.34      0.00
  243                  6.90    138.41     53.91      0.00
  247                111.90    138.42     52.18      0.00
  249                  0.00    138.42     52.18      0.00
  251                 38.41    138.44     46.99      0.00
  253                 86.69    138.70     44.50      0.00
  255                 64.22    138.77     48.43      0.00
  257                  0.00    151.06     58.09      0.00
  259                  0.00    150.59     54.42      0.00
  261                  0.00    148.89     64.51      0.00
  263                  0.00    148.71     64.43      0.00
  265                  0.00    147.29     63.82      0.00
  267                  0.00    145.45     53.92      0.00
  269                  0.00    145.95     63.24      0.00
  271                  0.00    145.45     60.42      0.00
  273                  0.00    140.23     57.30      0.00
  275                  0.00    139.54     56.13      0.00
  River           -13170.42    220.00      0.00      0.00  Reservoir
  Lake                 0.00    167.00      0.00      0.00  Reservoir
  1                  307.74    145.00      5.68      0.00  Tank
  2                 -437.11    140.00     10.18      0.00  Tank
  3                 2043.25    158.00     12.57      0.00  Tank
   
   
  Link Results at 0:00:00 hrs:
  ----------------------------------------------
                       Flow  Velocity  Headloss
  Link                  gpm       fps   /1000ft
  ----------------------------------------------
  20               -2043.25      0.09      0.00
  40                -307.74      0.01      0.00
  50                 437.11      0.02      0.00
  60               13170.42      9.34      8.94
  101                  0.00      0.00      0.00
  103                144.63      0.23      0.02
  105               -446.65      1.27      0.57
  107                  4.82      0.01      0.00
  109                -67.16      0.11      0.00
  111               -435.09      1.23      0.54
  112                466.27      1.32      0.62
  113               -156.54      0.44      0.08
  114                106.61      0.68      0.29
  115                -82.06      0.52      0.18
  116                -81.75      0.23      0.02
  117                666.70      1.89      1.20
  119               -737.77      2.09      1.44
  120               1212.96      3.44      3.62
  121               1082.82      3.07      2.94
  122                378.67      2.42      3.02
  123               9968.48      4.52      1.78
  125              13170.42      5.98      2.98
  129               2757.07      1.96      0.57
  131               2457.05      1.74      0.46
  133              -2043.25      2.09      0.79
  135                385.72      0.27      0.01
  137                 67.97      0.11      0.00
  145                317.75      2.03      2.19
  147                308.38      1.97      2.07
  149               -620.63      3.96      7.55
  151               -610.77      3.90      7.33
  153                327.91      0.93      0.32
  155                371.84      1.05      0.41
  159               -385.43      1.09      0.43
  161               -428.47      2.73      3.80
  163               -157.29      0.45      0.08
  169                227.52      1.45      1.18
  171                500.91      1.42      0.70
  173               7974.56      3.62      1.18
  175               7892.22      3.58      1.15
  177               7826.52      3.55      1.14
  179               7533.22      3.42      1.06
  180                  4.13      0.01      0.00
  181                  4.13      0.01      0.00
  183               7287.90      3.31      0.99
  185                -23.15      0.15      0.02
  186                299.95      1.91      1.96
  187               6609.73      3.00      0.83
  189               4754.52      2.16      0.45
  191              -1792.66      1.27      0.26
  193              -1400.79      0.99      0.16
  195                516.82      1.47      0.75
  197                424.33      1.20      0.52
  199                116.59      0.33      0.05
  201               -307.74      0.87      0.29
  202                538.26      3.44      5.80
  203                279.09      1.78      1.72
  204                538.26      1.53      0.80
  205                299.95      0.85      0.27
  207                162.50      0.46      0.09
  209                193.81      1.24      0.87
  211                655.02      1.86      1.16
  213                106.14      0.30      0.04
  215                 -2.17      0.01      0.00
  217               -301.42      0.86      0.28
  219               -268.17      0.76      0.22
  221                268.17      1.71      1.60
  223                -65.06      0.18      0.02
  225                -37.97      0.11      0.01
  229               4754.52      3.37      1.34
  231               4429.84      3.14      1.17
  233               4398.49      3.12      1.35
  235                134.96      0.38      0.06
  237                458.52      1.30      0.60
  238                419.39      1.19      0.51
  239                 71.19      0.20      0.02
  240                419.39      1.19      0.51
  241                419.39      1.19      0.51
  243                418.00      0.67      0.12
  245                348.56      0.56      0.09
  247                287.04      0.46      0.06
  249                140.46      0.22      0.02
  251                 65.70      0.14      0.01
  257                 36.25      0.10      0.01
  261                 39.36      0.25      0.05
  263                 26.20      0.07      0.00
  269                 55.65      0.16      0.01
  271                 88.89      0.57      0.21
  273                -58.06      0.16      0.01
  275                -44.07      0.13      0.01
  277                  6.90      0.02      0.00
  281                -50.97      0.21      0.02
  283                -84.92      0.24      0.03
  285                 15.45      0.04      0.00
  287               -178.32      0.73      0.25
  289                437.11      1.79      1.33
  291                 86.69      0.35      0.07
  293                107.88      0.69      0.30
  295                -69.47      0.20      0.02
  297                508.81      3.25      5.23
  299                244.54      1.56      1.35
  301                244.54      1.56      1.35
  303                264.28      1.69      1.55
  305                157.89      0.45      0.08
  307                422.17      1.20      0.51
  309                226.21      1.44      1.16
  311               -228.38      0.65      0.16
  313                530.07      1.50      0.78
  315              -1917.61      1.36      0.29
  317                110.77      0.71      0.31
  319                 24.19      0.07      0.00
  321               7514.11      3.41      1.05
  323                -39.58      0.11      0.01
  325                124.95      0.80      0.39
  329              13170.42      5.98      3.02
  330                  0.00      0.00      0.00
  333                 -0.00      0.00      0.00
  10                   0.00      0.00      0.00  Pump
  335              13170.42      0.00    -93.33  Pump
   
   
  Node Results at 0:05:00 hrs:
  --------------------------------------------------------
                     Demand      Head  Pressure  Chemical
  Node                  gpm        ft       psi      mg/L
  --------------------------------------------------------
  10                   0.00    144.03     -1.29      0.00
  15                 610.77    125.75     40.62      0.00
  20                   0.00    158.06     12.59      0.00
  35                1400.79    145.40     57.59      0.00
  40                   0.00    145.04      5.69      0.00
  50                   0.00    139.85     10.12      0.00
  60                   0.00    208.99     90.56      0.00
  601                  0.00    302.34    131.00      0.00
  61                   0.00    302.34    131.00      0.00
  101                302.02    144.03     44.21      0.00
  103                211.79    144.01     43.77      0.00
  105                215.24    145.48     50.69      0.00
  107                 86.88    145.48     53.50      0.00
  109                367.93    144.02     53.61      0.00
  111                225.68    145.11     58.54      0.00
  113                 31.82    145.24     62.07      0.00
  115                 82.84    145.82     57.12      0.00
  117                187.16    148.97     58.66      0.00
  119                280.05    157.12     67.21      0.00
  120                  0.00    154.47     66.93      0.00
  121                 66.19    160.68     70.49      0.00
  123                  0.00    165.14     66.79      0.00
  125                 72.50    160.15     64.63      0.00
  127                 28.08    158.68     44.49      0.00
  129                  0.00    158.67     46.65      0.00
  131                 67.97    158.64     66.14      0.00
  139                  9.37    152.65     52.71      0.00
  141                 15.66    148.41     62.57      0.00
  143                  9.86    137.84     61.68      0.00
  145                 43.93    149.54     64.36      0.00
  147                 13.59    150.43     57.16      0.00
  149                 43.04    150.81     58.41      0.00
  151                229.72    154.69     52.51      0.00
  153                 70.23    154.78     38.38      0.00
  157                 82.35    154.67     61.34      0.00
  159                 65.70    151.31     62.96      0.00
  161                 25.12    149.04     62.85      0.00
  163                 14.98    148.58     62.21      0.00
  164                  0.00    148.58     62.21      0.00
  166                  4.13    148.58     65.25      0.00
  167                 23.15    146.73     65.74      0.00
  169                  0.00    146.73     65.74      0.00
  171                 62.55    145.67     64.85      0.00
  173                  0.00    145.65     64.84      0.00
  177                 92.49    145.38     59.53      0.00
  179                  0.00    145.37     59.52      0.00
  181                  0.00    145.41     59.54      0.00
  183                  0.00    145.36     58.22      0.00
  184                  0.00    143.90     55.42      0.00
  185                 40.78    144.48     55.67      0.00
  187                  0.00    145.04     57.43      0.00
  189                171.59    145.48     61.30      0.00
  191                130.22    145.14     52.06      0.00
  193                113.38    145.28     55.15      0.00
  195                  0.00    145.36     56.27      0.00
  197                 27.09    145.12     52.92      0.00
  199                189.72    140.28     61.65      0.00
  201                 70.93    139.54     60.42      0.00
  203               4398.49    139.38     59.53      0.00
  204                  0.00    144.84     53.66      0.00
  205                103.92    140.23     51.66      0.00
  206                  0.00    139.27     59.91      0.00
  207                110.33    139.51     56.55      0.00
  208                  0.00    139.00     53.29      0.00
  209                  1.38    138.53     60.89      0.00
  211                 13.79    138.37     56.92      0.00
  213                 22.16    138.28     56.88      0.00
  215                146.58    138.02     56.77      0.00
  217                 38.51    137.99     57.19      0.00
  219                 65.70    137.97     58.05      0.00
  225                 36.25    137.98     56.32      0.00
  229                102.05    138.18     55.32      0.00
  231                 26.20    138.17     57.70      0.00
  237                 24.82    138.34     53.87      0.00
  239                 70.93    138.34     54.31      0.00
  241                  0.00    138.34     54.31      0.00
  243                  6.90    138.34     53.88      0.00
  247                111.90    138.35     52.15      0.00
  249                  0.00    138.35     52.15      0.00
  251                 38.41    138.37     46.96      0.00
  253                 86.69    138.60     44.46      0.00
  255                 64.22    138.68     48.39      0.00
  257                  0.00    151.10     58.10      0.00
  259                  0.00    150.63     54.43      0.00
  261                  0.00    148.92     64.53      0.00
  263                  0.00    148.74     64.45      0.00
  265                  0.00    147.32     63.83      0.00
  267                  0.00    145.48     53.94      0.00
  269                  0.00    145.98     63.25      0.00
  271                  0.00    145.48     60.44      0.00
  273                  0.00    140.24     57.30      0.00
  275                  0.00    139.54     56.13      0.00
  River           -13168.85    220.00      0.00      0.00  Reservoir
  Lake                 0.00    167.00      0.00      0.00  Reservoir
  1                  303.76    145.04      5.69      0.00  Tank
  2                 -426.21    139.85     10.12      0.00  Tank
  3                 2034.75    158.06     12.59      0.00  Tank
   
   
  Link Results at 0:05:00 hrs:
  ----------------------------------------------
                       Flow  Velocity  Headloss
  Link                  gpm       fps   /1000ft
  ----------------------------------------------
  20               -2034.75      0.08      0.00
  40                -303.76      0.01      0.00
  50                 426.21      0.02      0.00
  60               13168.85      9.34      8.94
  101                  0.00      0.00      0.00
  103                144.83      0.23      0.02
  105               -446.85      1.27      0.57
  107                  4.94      0.01      0.00
  109                -66.95      0.11      0.00
  111               -434.88      1.23      0.54
  112                466.76      1.32      0.62
  113               -156.37      0.44      0.08
  114                106.78      0.68      0.29
  115                -81.93      0.52      0.18
  116                -81.41      0.23      0.02
  117                667.04      1.89      1.20
  119               -738.30      2.09      1.45
  120               1213.60      3.44      3.63
  121               1083.41      3.07      2.94
  122                378.90      2.42      3.03
  123               9974.92      4.53      1.78
  125              13168.85      5.98      2.98
  129               2748.84      1.95      0.56
  131               2448.71      1.74      0.45
  133              -2034.75      2.08      0.78
  135                385.88      0.27      0.01
  137                 67.97      0.11      0.00
  145                317.90      2.03      2.19
  147                308.54      1.97      2.07
  149               -620.63      3.96      7.55
  151               -610.77      3.90      7.33
  153                327.75      0.93      0.32
  155                371.68      1.05      0.41
  159               -385.28      1.09      0.43
  161               -428.32      2.73      3.80
  163               -157.39      0.45      0.08
  169                227.62      1.45      1.18
  171                500.65      1.42      0.70
  173               7980.62      3.62      1.18
  175               7898.27      3.58      1.15
  177               7832.58      3.56      1.14
  179               7539.17      3.42      1.06
  180                  4.13      0.01      0.00
  181                  4.13      0.01      0.00
  183               7293.79      3.31      1.00
  185                -23.15      0.15      0.02
  186                300.75      1.92      1.97
  187               6615.56      3.00      0.83
  189               4764.08      2.16      0.45
  191              -1788.93      1.27      0.25
  193              -1400.79      0.99      0.16
  195                513.21      1.46      0.74
  197                420.72      1.19      0.51
  199                116.96      0.33      0.05
  201               -303.76      0.86      0.28
  202                539.60      3.44      5.83
  203                279.63      1.78      1.72
  204                539.60      1.53      0.81
  205                300.75      0.85      0.27
  207                162.67      0.46      0.09
  209                193.97      1.24      0.88
  211                655.07      1.86      1.16
  213                106.77      0.30      0.04
  215                 -1.76      0.01      0.00
  217               -301.53      0.86      0.28
  219               -268.28      0.76      0.22
  221                268.28      1.71      1.60
  223                -64.54      0.18      0.02
  225                -37.44      0.11      0.01
  229               4764.08      3.38      1.34
  231               4437.81      3.15      1.18
  233               4398.49      3.12      1.35
  235                136.55      0.39      0.06
  237                461.27      1.31      0.60
  238                430.29      1.22      0.53
  239                 79.35      0.23      0.02
  240                430.29      1.22      0.53
  241                430.29      1.22      0.53
  243                428.91      0.68      0.13
  245                349.58      0.56      0.09
  247                287.04      0.46      0.06
  249                140.46      0.22      0.02
  251                 65.70      0.14      0.01
  257                 36.25      0.10      0.01
  261                 40.38      0.26      0.05
  263                 26.20      0.07      0.00
  269                 65.54      0.19      0.02
  271                 87.87      0.56      0.20
  273                -47.16      0.13      0.01
  275                -39.98      0.11      0.01
  277                  6.90      0.02      0.00
  281                -46.88      0.19      0.02
  283                -78.11      0.22      0.02
  285                 12.65      0.04      0.00
  287               -171.43      0.70      0.24
  289                426.21      1.74      1.27
  291                 86.69      0.35      0.07
  293                103.88      0.66      0.28
  295                -65.46      0.19      0.02
  297                509.09      3.25      5.23
  299                244.67      1.56      1.35
  301                244.67      1.56      1.35
  303                264.42      1.69      1.56
  305                157.95      0.45      0.08
  307                422.37      1.20      0.51
  309                226.27      1.44      1.17
  311               -228.04      0.65      0.16
  313                530.01      1.50      0.78
  315              -1914.00      1.36      0.29
  317                110.95      0.71      0.31
  319                 25.60      0.07      0.00
  321               7520.06      3.41      1.05
  323                -31.61      0.09      0.00
  325                125.07      0.80      0.39
  329              13168.85      5.98      3.02
  330                  0.00      0.00      0.00
  333                 -0.00      0.00      0.00
  10                   0.00      0.00      0.00  Pump
  335              13168.85      0.00    -93.35  Pump
   
   
  Node Results at 0:10:00 hrs:
  --------------------------------------------------------
                     Demand      Head  Pressure  Chemical
  Node                  gpm        ft       psi      mg/L
  --------------------------------------------------------
  10                   0.00    144.06     -1.27      0.00
  15                 610.77    125.80     40.64      0.00
  20                   0.00    158.13     12.62      0.00
  35                1400.79    145.43     57.60      0.00
  40                   0.00    145.07      5.71      0.00
  50                   0.00    139.71     10.06      0.00
  60                   0.00    209.00     90.56      0.00
  601                  0.00    302.36    131.01      0.00
  61                   0.00    302.36    131.01      0.00
  101                302.02    144.06     44.22      0.00
  103                211.79    144.04     43.78      0.00
  105                215.24    145.51     50.70      0.00
  107                 86.88    145.51     53.52      0.00
  109                367.93    144.05     53.62      0.00
  111                225.68    145.14     58.55      0.00
  113                 31.82    145.27     62.08      0.00
  115                 82.84    145.86     57.13      0.00
  117                187.16    149.01     58.67      0.00
  119                280.05    157.16     67.23      0.00
  120                  0.00    154.51     66.95      0.00
  121                 66.19    160.73     70.51      0.00
  123                  0.00    165.19     66.81      0.00
  125                 72.50    160.20     64.65      0.00
  127                 28.08    158.74     44.52      0.00
  129                  0.00    158.73     46.68      0.00
  131                 67.97    158.70     66.16      0.00
  139                  9.37    152.71     52.74      0.00
  141                 15.66    148.46     62.59      0.00
  143                  9.86    137.89     61.70      0.00
  145                 43.93    149.59     64.38      0.00
  147                 13.59    150.48     57.19      0.00
  149                 43.04    150.86     58.43      0.00
  151                229.72    154.73     52.53      0.00
  153                 70.23    154.83     38.40      0.00
  157                 82.35    154.71     61.36      0.00
  159                 65.70    151.35     62.98      0.00
  161                 25.12    149.07     62.86      0.00
  163                 14.98    148.61     62.23      0.00
  164                  0.00    148.61     62.23      0.00
  166                  4.13    148.61     65.26      0.00
  167                 23.15    146.76     65.76      0.00
  169                  0.00    146.76     65.76      0.00
  171                 62.55    145.70     64.87      0.00
  173                  0.00    145.68     64.86      0.00
  177                 92.49    145.41     59.54      0.00
  179                  0.00    145.40     59.53      0.00
  181                  0.00    145.43     59.55      0.00
  183                  0.00    145.39     58.23      0.00
  184                  0.00    143.92     55.43      0.00
  185                 40.78    144.50     55.68      0.00
  187                  0.00    145.07     57.44      0.00
  189                171.59    145.51     61.31      0.00
  191                130.22    145.17     52.07      0.00
  193                113.38    145.31     55.17      0.00
  195                  0.00    145.39     56.28      0.00
  197                 27.09    145.15     52.93      0.00
  199                189.72    140.29     61.65      0.00
  201                 70.93    139.54     60.42      0.00
  203               4398.49    139.38     59.53      0.00
  204                  0.00    144.87     53.67      0.00
  205                103.92    140.24     51.67      0.00
  206                  0.00    139.26     59.91      0.00
  207                110.33    139.51     56.55      0.00
  208                  0.00    138.97     53.28      0.00
  209                  1.38    138.48     60.87      0.00
  211                 13.79    138.31     56.90      0.00
  213                 22.16    138.23     56.86      0.00
  215                146.58    137.96     56.75      0.00
  217                 38.51    137.93     57.17      0.00
  219                 65.70    137.92     58.03      0.00
  225                 36.25    137.93     56.30      0.00
  229                102.05    138.12     55.30      0.00
  231                 26.20    138.11     57.68      0.00
  237                 24.82    138.27     53.85      0.00
  239                 70.93    138.27     54.28      0.00
  241                  0.00    138.27     54.28      0.00
  243                  6.90    138.27     53.85      0.00
  247                111.90    138.28     52.12      0.00
  249                  0.00    138.28     52.12      0.00
  251                 38.41    138.30     46.93      0.00
  253                 86.69    138.51     44.42      0.00
  255                 64.22    138.59     48.35      0.00
  257                  0.00    151.14     58.12      0.00
  259                  0.00    150.66     54.45      0.00
  261                  0.00    148.96     64.54      0.00
  263                  0.00    148.78     64.46      0.00
  265                  0.00    147.35     63.85      0.00
  267                  0.00    145.51     53.95      0.00
  269                  0.00    146.01     63.27      0.00
  271                  0.00    145.51     60.45      0.00
  273                  0.00    140.24     57.30      0.00
  275                  0.00    139.55     56.13      0.00
  River           -13167.28    220.00      0.00      0.00  Reservoir
  Lake                 0.00    167.00      0.00      0.00  Reservoir
  1                  299.99    145.07      5.71      0.00  Tank
  2                 -415.55    139.71     10.06      0.00  Tank
  3                 2026.29    158.13     12.62      0.00  Tank
   
   
  Link Results at 0:10:00 hrs:
  ----------------------------------------------
                       Flow  Velocity  Headloss
  Link                  gpm       fps   /1000ft
  ----------------------------------------------
  20               -2026.29      0.08      0.00
  40                -299.99      0.01      0.00
  50                 415.55      0.02      0.00
  60               13167.28      9.34      8.94
  101                  0.00      0.00      0.00
  103                145.04      0.23      0.02
  105               -447.06      1.27      0.57
  107                  5.07      0.01      0.00
  109                -66.74      0.11      0.00
  111               -434.67      1.23      0.54
  112                467.24      1.33      0.62
  113               -156.19      0.44      0.08
  114                106.94      0.68      0.29
  115                -81.81      0.52      0.18
  116                -81.06      0.23      0.02
  117                667.37      1.89      1.20
  119               -738.84      2.10      1.45
  120               1214.24      3.44      3.63
  121               1084.00      3.08      2.94
  122                379.12      2.42      3.03
  123               9981.33      4.53      1.78
  125              13167.28      5.98      2.98
  129               2740.64      1.94      0.56
  131               2440.40      1.73      0.45
  133              -2026.29      2.07      0.78
  135                386.03      0.27      0.01
  137                 67.97      0.11      0.00
  145                318.06      2.03      2.19
  147                308.70      1.97      2.07
  149               -620.63      3.96      7.55
  151               -610.77      3.90      7.33
  153                327.59      0.93      0.32
  155                371.53      1.05      0.41
  159               -385.12      1.09      0.43
  161               -428.16      2.73      3.80
  163               -157.50      0.45      0.08
  169                227.73      1.45      1.18
  171                500.38      1.42      0.70
  173               7986.65      3.63      1.18
  175               7904.31      3.59      1.16
  177               7838.61      3.56      1.14
  179               7545.09      3.42      1.06
  180                  4.13      0.01      0.00
  181                  4.13      0.01      0.00
  183               7299.65      3.31      1.00
  185                -23.15      0.15      0.02
  186                301.53      1.92      1.98
  187               6621.36      3.01      0.83
  189               4773.43      2.17      0.45
  191              -1785.38      1.27      0.25
  193              -1400.79      0.99      0.16
  195                509.77      1.45      0.73
  197                417.28      1.18      0.50
  199                117.29      0.33      0.05
  201               -299.99      0.85      0.27
  202                540.91      3.45      5.85
  203                280.16      1.79      1.73
  204                540.91      1.53      0.81
  205                301.53      0.86      0.28
  207                162.87      0.46      0.09
  209                194.13      1.24      0.88
  211                655.14      1.86      1.16
  213                107.40      0.30      0.04
  215                 -1.35      0.00      0.00
  217               -301.63      0.86      0.28
  219               -268.39      0.76      0.22
  221                268.39      1.71      1.60
  223                -64.01      0.18      0.02
  225                -36.92      0.10      0.01
  229               4773.43      3.39      1.35
  231               4445.55      3.15      1.18
  233               4398.49      3.12      1.35
  235                138.17      0.39      0.06
  237                464.04      1.32      0.61
  238                440.95      1.25      0.56
  239                 87.24      0.25      0.03
  240                440.95      1.25      0.56
  241                440.95      1.25      0.56
  243                439.57      0.70      0.14
  245                350.70      0.56      0.09
  247                287.04      0.46      0.06
  249                140.46      0.22      0.02
  251                 65.70      0.14      0.01
  257                 36.25      0.10      0.01
  261                 41.49      0.26      0.05
  263                 26.20      0.07      0.00
  269                 75.08      0.21      0.02
  271                 86.76      0.55      0.20
  273                -36.49      0.10      0.01
  275                -35.99      0.10      0.01
  277                  6.90      0.02      0.00
  281                -42.89      0.18      0.02
  283                -71.44      0.20      0.02
  285                  9.90      0.03      0.00
  287               -164.69      0.67      0.22
  289                415.55      1.70      1.21
  291                 86.69      0.35      0.07
  293                 99.96      0.64      0.26
  295                -61.54      0.17      0.01
  297                509.36      3.25      5.24
  299                244.80      1.56      1.35
  301                244.80      1.56      1.35
  303                264.56      1.69      1.56
  305                158.01      0.45      0.08
  307                422.57      1.20      0.51
  309                226.33      1.44      1.17
  311               -227.69      0.65      0.16
  313                529.95      1.50      0.78
  315              -1910.56      1.35      0.29
  317                111.12      0.71      0.31
  319                 27.05      0.08      0.00
  321               7525.98      3.42      1.06
  323                -23.87      0.07      0.00
  325                125.19      0.80      0.39
  329              13167.28      5.98      3.01
  330                  0.00      0.00      0.00
  333                 -0.00      0.00      0.00
  10                   0.00      0.00      0.00  Pump
  335              13167.28      0.00    -93.36  Pump
   
   
  Node Results at 0:15:00 hrs:
  --------------------------------------------------------
                     Demand      Head  Pressure  Chemical
  Node                  gpm        ft       psi      mg/L
  --------------------------------------------------------
  10                   0.00    144.09     -1.26      0.00
  15                 610.77    125.85     40.66      0.00
  20                   0.00    158.19     12.65      0.00
  35                1400.79    145.46     57.61      0.00
  40                   0.00    145.11      5.72      0.00
  50                   0.00    139.56      9.99      0.00
  60                   0.00    209.00     90.56      0.00
  601                  0.00    302.37    131.02      0.00
  61                   0.00    302.37    131.02      0.00
  101                302.02    144.09     44.24      0.00
  103                211.79    144.07     43.79      0.00
  105                215.24    145.54     50.71      0.00
  107                 86.88    145.54     53.53      0.00
  109                367.93    144.08     53.64      0.00
  111                225.68    145.17     58.57      0.00
  113                 31.82    145.30     62.09      0.00
  115                 82.84    145.89     57.15      0.00
  117                187.16    149.04     58.69      0.00
  119                280.05    157.21     67.25      0.00
  120                  0.00    154.55     66.97      0.00
  121                 66.19    160.77     70.53      0.00
  123                  0.00    165.24     66.83      0.00
  125                 72.50    160.26     64.67      0.00
  127                 28.08    158.80     44.54      0.00
  129                  0.00    158.79     46.70      0.00
  131                 67.97    158.76     66.19      0.00
  139                  9.37    152.76     52.76      0.00
  141                 15.66    148.51     62.62      0.00
  143                  9.86    137.94     61.72      0.00
  145                 43.93    149.64     64.40      0.00
  147                 13.59    150.53     57.21      0.00
  149                 43.04    150.91     58.46      0.00
  151                229.72    154.78     52.55      0.00
  153                 70.23    154.87     38.42      0.00
  157                 82.35    154.75     61.38      0.00
  159                 65.70    151.38     62.99      0.00
  161                 25.12    149.10     62.87      0.00
  163                 14.98    148.65     62.24      0.00
  164                  0.00    148.65     62.24      0.00
  166                  4.13    148.65     65.27      0.00
  167                 23.15    146.79     65.77      0.00
  169                  0.00    146.79     65.77      0.00
  171                 62.55    145.73     64.88      0.00
  173                  0.00    145.70     64.87      0.00
  177                 92.49    145.44     59.55      0.00
  179                  0.00    145.42     59.55      0.00
  181                  0.00    145.46     59.56      0.00
  183                  0.00    145.41     58.24      0.00
  184                  0.00    143.94     55.44      0.00
  185                 40.78    144.53     55.69      0.00
  187                  0.00    145.09     57.45      0.00
  189                171.59    145.53     61.33      0.00
  191                130.22    145.20     52.08      0.00
  193                113.38    145.34     55.18      0.00
  195                  0.00    145.42     56.30      0.00
  197                 27.09    145.18     52.94      0.00
  199                189.72    140.30     61.66      0.00
  201                 70.93    139.55     60.42      0.00
  203               4398.49    139.39     59.53      0.00
  204                  0.00    144.90     53.68      0.00
  205                103.92    140.25     51.67      0.00
  206                  0.00    139.24     59.90      0.00
  207                110.33    139.50     56.55      0.00
  208                  0.00    138.95     53.27      0.00
  209                  1.38    138.43     60.85      0.00
  211                 13.79    138.26     56.88      0.00
  213                 22.16    138.17     56.84      0.00
  215                146.58    137.91     56.72      0.00
  217                 38.51    137.88     57.14      0.00
  219                 65.70    137.86     58.00      0.00
  225                 36.25    137.87     56.27      0.00
  229                102.05    138.05     55.27      0.00
  231                 26.20    138.05     57.65      0.00
  237                 24.82    138.21     53.82      0.00
  239                 70.93    138.21     54.25      0.00
  241                  0.00    138.21     54.25      0.00
  243                  6.90    138.21     53.82      0.00
  247                111.90    138.21     52.09      0.00
  249                  0.00    138.21     52.09      0.00
  251                 38.41    138.23     46.90      0.00
  253                 86.69    138.42     44.38      0.00
  255                 64.22    138.50     48.31      0.00
  257                  0.00    151.17     58.14      0.00
  259                  0.00    150.70     54.47      0.00
  261                  0.00    148.99     64.56      0.00
  263                  0.00    148.81     64.48      0.00
  265                  0.00    147.38     63.86      0.00
  267                  0.00    145.53     53.96      0.00
  269                  0.00    146.04     63.28      0.00
  271                  0.00    145.54     60.46      0.00
  273                  0.00    140.25     57.30      0.00
  275                  0.00    139.55     56.13      0.00
  River           -13165.71    220.00      0.00      0.00  Reservoir
  Lake                 0.00    167.00      0.00      0.00  Reservoir
  1                  296.40    145.11      5.72      0.00  Tank
  2                 -405.11    139.56      9.99      0.00  Tank
  3                 2017.88    158.19     12.65      0.00  Tank
   
   
  Link Results at 0:15:00 hrs:
  ----------------------------------------------
                       Flow  Velocity  Headloss
  Link                  gpm       fps   /1000ft
  ----------------------------------------------
  20               -2017.88      0.08      0.00
  40                -296.40      0.01      0.00
  50                 405.11      0.02      0.00
  60               13165.71      9.34      8.94
  101                  0.00      0.00      0.00
  103                145.25      0.23      0.02
  105               -447.27      1.27      0.57
  107                  5.19      0.01      0.00
  109                -66.54      0.11      0.00
  111               -434.46      1.23      0.54
  112                467.73      1.33      0.62
  113               -156.02      0.44      0.08
  114                107.11      0.68      0.29
  115                -81.69      0.52      0.18
  116                -80.73      0.23      0.02
  117                667.70      1.89      1.20
  119               -739.36      2.10      1.45
  120               1214.88      3.45      3.63
  121               1084.59      3.08      2.95
  122                379.35      2.42      3.03
  123               9987.69      4.53      1.78
  125              13165.71      5.98      2.97
  129               2732.48      1.94      0.56
  131               2432.14      1.72      0.45
  133              -2017.88      2.06      0.77
  135                386.19      0.27      0.01
  137                 67.97      0.11      0.00
  145                318.21      2.03      2.19
  147                308.85      1.97      2.07
  149               -620.63      3.96      7.55
  151               -610.77      3.90      7.33
  153                327.44      0.93      0.32
  155                371.37      1.05      0.40
  159               -384.97      1.09      0.43
  161               -428.01      2.73      3.79
  163               -157.61      0.45      0.08
  169                227.84      1.45      1.18
  171                500.12      1.42      0.70
  173               7992.64      3.63      1.18
  175               7910.30      3.59      1.16
  177               7844.60      3.56      1.14
  179               7550.97      3.43      1.06
  180                  4.13      0.01      0.00
  181                  4.13      0.01      0.00
  183               7305.46      3.32      1.00
  185                -23.15      0.15      0.02
  186                302.30      1.93      1.99
  187               6627.11      3.01      0.83
  189               4782.59      2.17      0.46
  191              -1781.97      1.26      0.25
  193              -1400.79      0.99      0.16
  195                506.48      1.44      0.72
  197                413.99      1.17      0.49
  199                117.59      0.33      0.05
  201               -296.40      0.84      0.27
  202                542.20      3.46      5.88
  203                280.68      1.79      1.74
  204                542.20      1.54      0.82
  205                302.30      0.86      0.28
  207                163.09      0.46      0.09
  209                194.28      1.24      0.88
  211                655.21      1.86      1.16
  213                108.02      0.31      0.04
  215                 -0.94      0.00      0.00
  217               -301.73      0.86      0.28
  219               -268.50      0.76      0.22
  221                268.50      1.71      1.60
  223                -63.49      0.18      0.02
  225                -36.40      0.10      0.01
  229               4782.59      3.39      1.35
  231               4453.07      3.16      1.18
  233               4398.49      3.12      1.35
  235                139.80      0.40      0.07
  237                466.81      1.32      0.62
  238                451.39      1.28      0.58
  239                 94.91      0.27      0.03
  240                451.39      1.28      0.58
  241                451.39      1.28      0.58
  243                450.01      0.72      0.14
  245                351.89      0.56      0.09
  247                287.04      0.46      0.06
  249                140.46      0.22      0.02
  251                 65.70      0.14      0.01
  257                 36.25      0.10      0.01
  261                 42.68      0.27      0.05
  263                 26.20      0.07      0.00
  269                 84.33      0.24      0.03
  271                 85.57      0.55      0.19
  273                -26.05      0.07      0.00
  275                -32.08      0.09      0.00
  277                  6.90      0.02      0.00
  281                -38.98      0.16      0.02
  283                -64.90      0.18      0.02
  285                  7.21      0.02      0.00
  287               -158.09      0.65      0.20
  289                405.11      1.65      1.16
  291                 86.69      0.35      0.07
  293                 96.11      0.61      0.24
  295                -57.70      0.16      0.01
  297                509.64      3.25      5.24
  299                244.93      1.56      1.35
  301                244.93      1.56      1.35
  303                264.71      1.69      1.56
  305                158.06      0.45      0.08
  307                422.77      1.20      0.51
  309                226.39      1.45      1.17
  311               -227.33      0.64      0.16
  313                529.90      1.50      0.78
  315              -1907.27      1.35      0.29
  317                111.26      0.71      0.31
  319                 28.54      0.08      0.00
  321               7531.86      3.42      1.06
  323                -16.35      0.05      0.00
  325                125.30      0.80      0.39
  329              13165.71      5.98      3.01
  330                  0.00      0.00      0.00
  333                 -0.00      0.00      0.00
  10                   0.00      0.00      0.00  Pump
  335              13165.71      0.00    -93.37  Pump
   
   
  Node Results at 0:20:00 hrs:
  --------------------------------------------------------
                     Demand      Head  Pressure  Chemical
  Node                  gpm        ft       psi      mg/L
  --------------------------------------------------------
  10                   0.00    144.12     -1.25      0.00
  15                 610.77    125.90     40.68      0.00
  20                   0.00    158.26     12.68      0.00
  35                1400.79    145.48     57.62      0.00
  40                   0.00    145.14      5.74      0.00
  50                   0.00    139.43      9.93      0.00
  60                   0.00    209.00     90.56      0.00
  601                  0.00    302.39    131.02      0.00
  61                   0.00    302.39    131.02      0.00
  101                302.02    144.12     44.25      0.00
  103                211.79    144.10     43.81      0.00
  105                215.24    145.57     50.73      0.00
  107                 86.88    145.57     53.54      0.00
  109                367.93    144.11     53.65      0.00
  111                225.68    145.20     58.58      0.00
  113                 31.82    145.33     62.11      0.00
  115                 82.84    145.92     57.16      0.00
  117                187.16    149.08     58.70      0.00
  119                280.05    157.25     67.27      0.00
  120                  0.00    154.59     66.99      0.00
  121                 66.19    160.82     70.55      0.00
  123                  0.00    165.28     66.85      0.00
  125                 72.50    160.31     64.69      0.00
  127                 28.08    158.86     44.57      0.00
  129                  0.00    158.85     46.73      0.00
  131                 67.97    158.82     66.22      0.00
  139                  9.37    152.81     52.78      0.00
  141                 15.66    148.56     62.64      0.00
  143                  9.86    137.99     61.74      0.00
  145                 43.93    149.68     64.42      0.00
  147                 13.59    150.57     57.23      0.00
  149                 43.04    150.95     58.48      0.00
  151                229.72    154.82     52.57      0.00
  153                 70.23    154.92     38.44      0.00
  157                 82.35    154.79     61.39      0.00
  159                 65.70    151.42     63.01      0.00
  161                 25.12    149.13     62.89      0.00
  163                 14.98    148.68     62.26      0.00
  164                  0.00    148.68     62.26      0.00
  166                  4.13    148.68     65.29      0.00
  167                 23.15    146.81     65.78      0.00
  169                  0.00    146.82     65.78      0.00
  171                 62.55    145.75     64.89      0.00
  173                  0.00    145.73     64.88      0.00
  177                 92.49    145.47     59.56      0.00
  179                  0.00    145.45     59.56      0.00
  181                  0.00    145.49     59.57      0.00
  183                  0.00    145.44     58.25      0.00
  184                  0.00    143.96     55.45      0.00
  185                 40.78    144.55     55.70      0.00
  187                  0.00    145.12     57.47      0.00
  189                171.59    145.56     61.34      0.00
  191                130.22    145.23     52.09      0.00
  193                113.38    145.37     55.19      0.00
  195                  0.00    145.45     56.31      0.00
  197                 27.09    145.21     52.95      0.00
  199                189.72    140.30     61.66      0.00
  201                 70.93    139.56     60.43      0.00
  203               4398.49    139.39     59.53      0.00
  204                  0.00    144.92     53.70      0.00
  205                103.92    140.25     51.67      0.00
  206                  0.00    139.23     59.90      0.00
  207                110.33    139.50     56.55      0.00
  208                  0.00    138.92     53.26      0.00
  209                  1.38    138.39     60.83      0.00
  211                 13.79    138.21     56.85      0.00
  213                 22.16    138.12     56.81      0.00
  215                146.58    137.85     56.70      0.00
  217                 38.51    137.82     57.12      0.00
  219                 65.70    137.81     57.98      0.00
  225                 36.25    137.82     56.25      0.00
  229                102.05    137.99     55.24      0.00
  231                 26.20    137.99     57.62      0.00
  237                 24.82    138.14     53.79      0.00
  239                 70.93    138.14     54.22      0.00
  241                  0.00    138.14     54.22      0.00
  243                  6.90    138.14     53.79      0.00
  247                111.90    138.15     52.06      0.00
  249                  0.00    138.15     52.06      0.00
  251                 38.41    138.16     46.87      0.00
  253                 86.69    138.33     44.34      0.00
  255                 64.22    138.41     48.27      0.00
  257                  0.00    151.21     58.15      0.00
  259                  0.00    150.74     54.48      0.00
  261                  0.00    149.03     64.57      0.00
  263                  0.00    148.85     64.49      0.00
  265                  0.00    147.41     63.87      0.00
  267                  0.00    145.56     53.97      0.00
  269                  0.00    146.07     63.29      0.00
  271                  0.00    145.56     60.47      0.00
  273                  0.00    140.26     57.31      0.00
  275                  0.00    139.56     56.14      0.00
  River           -13164.15    220.00      0.00      0.00  Reservoir
  Lake                 0.00    167.00      0.00      0.00  Reservoir
  1                  292.97    145.14      5.74      0.00  Tank
  2                 -394.88    139.43      9.93      0.00  Tank
  3                 2009.52    158.26     12.68      0.00  Tank
   
   
  Link Results at 0:20:00 hrs:
  ----------------------------------------------
                       Flow  Velocity  Headloss
  Link                  gpm       fps   /1000ft
  ----------------------------------------------
  20               -2009.52      0.08      0.00
  40                -292.97      0.01      0.00
  50                 394.88      0.02      0.00
  60               13164.15      9.34      8.94
  101                  0.00      0.00      0.00
  103                145.46      0.23      0.02
  105               -447.48      1.27      0.57
  107                  5.32      0.02      0.00
  109                -66.33      0.11      0.00
  111               -434.26      1.23      0.54
  112                468.21      1.33      0.62
  113               -155.85      0.44      0.08
  114                107.27      0.68      0.29
  115                -81.56      0.52      0.18
  116                -80.39      0.23      0.02
  117                668.03      1.90      1.20
  119               -739.89      2.10      1.45
  120               1215.51      3.45      3.64
  121               1085.17      3.08      2.95
  122                379.57      2.42      3.04
  123               9994.01      4.54      1.79
  125              13164.15      5.98      2.97
  129               2724.38      1.93      0.55
  131               2423.94      1.72      0.45
  133              -2009.52      2.05      0.77
  135                386.34      0.27      0.01
  137                 67.97      0.11      0.00
  145                318.37      2.03      2.19
  147                309.00      1.97      2.08
  149               -620.63      3.96      7.55
  151               -610.77      3.90      7.33
  153                327.29      0.93      0.32
  155                371.22      1.05      0.40
  159               -384.81      1.09      0.43
  161               -427.85      2.73      3.79
  163               -157.71      0.45      0.08
  169                227.94      1.45      1.18
  171                499.87      1.42      0.70
  173               7998.58      3.63      1.18
  175               7916.24      3.59      1.16
  177               7850.54      3.56      1.14
  179               7556.80      3.43      1.06
  180                  4.13      0.01      0.00
  181                  4.13      0.01      0.00
  183               7311.24      3.32      1.00
  185                -23.15      0.15      0.02
  186                303.06      1.93      2.00
  187               6632.80      3.01      0.84
  189               4791.55      2.17      0.46
  191              -1778.70      1.26      0.25
  193              -1400.79      0.99      0.16
  195                503.33      1.43      0.71
  197                410.84      1.17      0.49
  199                117.87      0.33      0.05
  201               -292.97      0.83      0.26
  202                543.46      3.47      5.90
  203                281.18      1.79      1.74
  204                543.46      1.54      0.82
  205                303.06      0.86      0.28
  207                163.31      0.46      0.09
  209                194.43      1.24      0.88
  211                655.28      1.86      1.16
  213                108.63      0.31      0.04
  215                 -0.52      0.00      0.00
  217               -301.82      0.86      0.28
  219               -268.61      0.76      0.22
  221                268.61      1.71      1.60
  223                -62.98      0.18      0.02
  225                -35.88      0.10      0.01
  229               4791.55      3.40      1.36
  231               4460.39      3.16      1.19
  233               4398.49      3.12      1.35
  235                141.44      0.40      0.07
  237                469.59      1.33      0.63
  238                461.62      1.31      0.61
  239                102.36      0.29      0.04
  240                461.62      1.31      0.61
  241                461.62      1.31      0.61
  243                460.24      0.73      0.15
  245                353.15      0.56      0.09
  247                287.04      0.46      0.06
  249                140.46      0.22      0.02
  251                 65.70      0.14      0.01
  257                 36.25      0.10      0.01
  261                 43.94      0.28      0.06
  263                 26.20      0.07      0.00
  269                 93.31      0.26      0.03
  271                 84.31      0.54      0.19
  273                -15.82      0.04      0.00
  275                -28.25      0.08      0.00
  277                  6.90      0.02      0.00
  281                -35.15      0.14      0.01
  283                -58.50      0.17      0.01
  285                  4.57      0.01      0.00
  287               -151.62      0.62      0.19
  289                394.88      1.61      1.10
  291                 86.69      0.35      0.07
  293                 92.35      0.59      0.22
  295                -53.93      0.15      0.01
  297                509.91      3.25      5.25
  299                245.06      1.56      1.35
  301                245.06      1.56      1.35
  303                264.85      1.69      1.56
  305                158.12      0.45      0.08
  307                422.97      1.20      0.52
  309                226.46      1.45      1.17
  311               -226.98      0.64      0.16
  313                529.86      1.50      0.78
  315              -1904.12      1.35      0.29
  317                111.39      0.71      0.31
  319                 30.05      0.09      0.00
  321               7537.69      3.42      1.06
  323                 -9.03      0.03      0.00
  325                125.42      0.80      0.39
  329              13164.15      5.98      3.01
  330                  0.00      0.00      0.00
  333                 -0.00      0.00      0.00
  10                   0.00      0.00      0.00  Pump
  335              13164.15      0.00    -93.39  Pump
   
   
  Node Results at 0:25:00 hrs:
  --------------------------------------------------------
                     Demand      Head  Pressure  Chemical
  Node                  gpm        ft       psi      mg/L
  --------------------------------------------------------
  10                   0.00    144.15     -1.23      0.00
  15                 610.77    125.95     40.71      0.00
  20                   0.00    158.32     12.70      0.00
  35                1400.79    145.51     57.63      0.00
  40                   0.00    145.18      5.75      0.00
  50                   0.00    139.29      9.88      0.00
  60                   0.00    209.00     90.56      0.00
  601                  0.00    302.40    131.03      0.00
  61                   0.00    302.40    131.03      0.00
  101                302.02    144.15     44.26      0.00
  103                211.79    144.13     43.82      0.00
  105                215.24    145.61     50.74      0.00
  107                 86.88    145.61     53.56      0.00
  109                367.93    144.14     53.66      0.00
  111                225.68    145.23     58.59      0.00
  113                 31.82    145.36     62.12      0.00
  115                 82.84    145.95     57.17      0.00
  117                187.16    149.11     58.72      0.00
  119                280.05    157.29     67.29      0.00
  120                  0.00    154.63     67.00      0.00
  121                 66.19    160.87     70.57      0.00
  123                  0.00    165.33     66.87      0.00
  125                 72.50    160.36     64.72      0.00
  127                 28.08    158.92     44.59      0.00
  129                  0.00    158.90     46.75      0.00
  131                 67.97    158.88     66.24      0.00
  139                  9.37    152.87     52.81      0.00
  141                 15.66    148.61     62.66      0.00
  143                  9.86    138.04     61.76      0.00
  145                 43.93    149.73     64.45      0.00
  147                 13.59    150.62     57.25      0.00
  149                 43.04    151.00     58.50      0.00
  151                229.72    154.87     52.59      0.00
  153                 70.23    154.96     38.46      0.00
  157                 82.35    154.83     61.41      0.00
  159                 65.70    151.45     63.02      0.00
  161                 25.12    149.17     62.90      0.00
  163                 14.98    148.71     62.27      0.00
  164                  0.00    148.71     62.27      0.00
  166                  4.13    148.71     65.30      0.00
  167                 23.15    146.84     65.79      0.00
  169                  0.00    146.84     65.79      0.00
  171                 62.55    145.78     64.90      0.00
  173                  0.00    145.76     64.89      0.00
  177                 92.49    145.50     59.58      0.00
  179                  0.00    145.48     59.57      0.00
  181                  0.00    145.52     59.59      0.00
  183                  0.00    145.47     58.27      0.00
  184                  0.00    143.99     55.46      0.00
  185                 40.78    144.58     55.71      0.00
  187                  0.00    145.15     57.48      0.00
  189                171.59    145.59     61.35      0.00
  191                130.22    145.26     52.11      0.00
  193                113.38    145.40     55.20      0.00
  195                  0.00    145.48     56.32      0.00
  197                 27.09    145.24     52.97      0.00
  199                189.72    140.31     61.66      0.00
  201                 70.93    139.56     60.43      0.00
  203               4398.49    139.40     59.54      0.00
  204                  0.00    144.95     53.71      0.00
  205                103.92    140.26     51.68      0.00
[...]
  219                 74.38    137.98     58.06      0.00
  225                 41.04    137.99     56.33      0.00
  229                115.52    138.18     55.32      0.02
  231                 29.66    138.17     57.70      0.00
  237                 28.10    138.34     53.88      0.00
  239                 80.30    138.34     54.31      2.49
  241                  0.00    138.34     54.31      0.00
  243                  7.81    138.34     53.87      0.00
  247                126.68    138.34     52.14      0.70
  249                  0.00    138.34     52.14    151.81
  251                 43.49    138.35     46.95      0.00
  253                 98.14    138.47     44.40      0.00
  255                 72.70    138.57     48.34      0.00
  257                  0.00    151.54     58.30      0.00
  259                  0.00    151.06     54.62      0.00
  261                  0.00    149.33     64.70      0.00
  263                  0.00    149.14     64.62      0.00
  265                  0.00    148.63     64.40      0.00
  267                  0.00    146.78     54.50      0.00
  269                  0.00    147.38     63.86      0.00
  271                  0.00    147.02     61.11      0.00
  273                  0.00    141.28     57.75      0.00
  275                  0.00    140.58     56.58      0.00
  River           -13190.98    220.00      0.00      0.00  Reservoir
  Lake                 0.00    167.00      0.00      0.00  Reservoir
  1                 -570.73    148.05      7.00      0.00  Tank
  2                 -398.68    139.60     10.01      0.00  Tank
  3                  719.42    160.47     13.64      0.00  Tank
   
   
  Link Results at 23:55:00 hrs:
  ----------------------------------------------
                       Flow  Velocity  Headloss
  Link                  gpm       fps   /1000ft
  ----------------------------------------------
  20                -719.42      0.03      0.00
  40                 570.73      0.02      0.00
  50                 398.68      0.02      0.00
  60               13190.98      9.36      8.97
  101                  0.00      0.00      0.00
  103                118.62      0.19      0.01
  105               -460.53      1.31      0.60
  107                -21.52      0.06      0.00
  109               -121.14      0.19      0.01
  111               -537.66      1.53      0.80
  112                422.27      1.20      0.51
  113               -229.43      0.65      0.17
  114                 77.05      0.49      0.16
  115               -119.87      0.77      0.36
  116               -188.40      0.53      0.12
  117                682.68      1.94      1.25
  119               -712.97      2.02      1.35
  120               1233.46      3.50      3.74
  121               1093.33      3.10      2.99
  122                374.06      2.39      2.96
  123               9626.29      4.37      1.67
  125              11455.73      5.20      2.30
  129               1380.45      0.98      0.16
  131               1085.96      0.77      0.10
  133               -719.42      0.73      0.11
  135                334.76      0.24      0.01
  137                 76.95      0.12      0.01
  145                257.81      1.65      1.48
  147                247.20      1.58      1.37
  149               -389.13      2.48      3.18
  151               -377.97      2.41      3.01
  153                159.66      0.45      0.08
  155                209.39      0.59      0.14
  159               -224.78      0.64      0.16
  161               -273.51      1.75      1.66
  163               -132.90      0.38      0.06
  169                212.40      1.36      1.04
  171                400.67      1.14      0.47
  173               7675.12      3.48      1.09
  175               7581.90      3.44      1.07
  177               7507.52      3.41      1.05
  179               7205.04      3.27      0.97
  180                  4.68      0.01      0.00
  181                  4.68      0.01      0.00
  183               6956.73      3.16      0.91
  185                -26.21      0.17      0.02
  186                266.52      1.70      1.58
  187               6293.51      2.86      0.76
  189               4940.33      2.24      0.48
  191              -1282.37      0.91      0.14
  193              -1457.94      1.03      0.17
  195                -71.47      0.20      0.02
  197               -176.17      0.50      0.10
  199                394.55      1.12      0.45
  201                570.73      1.62      0.90
  202                551.45      3.52      6.07
  203                331.09      2.11      2.36
  204                551.45      1.56      0.84
  205                266.52      0.76      0.22
  207                -63.46      0.18      0.02
  209                256.37      1.64      1.47
  211                637.01      1.81      1.10
  213                 10.15      0.03      0.00
  215               -145.74      0.41      0.07
  217               -329.70      0.94      0.32
  219               -274.04      0.78      0.23
  221                274.04      1.75      1.66
  223               -172.13      0.49      0.10
  225               -141.46      0.40      0.07
  229               4940.33      3.50      1.44
  231               4542.63      3.22      1.23
  233               4383.21      3.11      1.34
  235                182.92      0.52      0.11
  237                505.09      1.43      0.72
  238                570.94      1.62      0.90
  239                190.76      0.54      0.12
  240                570.94      1.62      0.90
  241                570.94      1.62      0.90
  243                569.38      0.91      0.22
  245                406.65      0.65      0.12
  247                324.95      0.52      0.08
  249                159.01      0.25      0.02
  251                 74.38      0.16      0.01
  257                 41.04      0.12      0.01
  261                 56.60      0.36      0.09
  263                 29.66      0.08      0.00
  269                147.13      0.42      0.07
  271                 88.59      0.57      0.21
  273                 30.44      0.09      0.00
  275                -13.88      0.04      0.00
  277                  7.81      0.02      0.00
  281                -21.69      0.09      0.01
  283                -35.98      0.10      0.01
  285                 -7.24      0.02      0.00
  287               -141.13      0.58      0.16
  289                398.68      1.63      1.12
  291                 98.14      0.40      0.08
  293                 86.71      0.55      0.20
  295                -43.22      0.12      0.01
  297                514.19      3.28      5.33
  299                247.33      1.58      1.37
  301                247.33      1.58      1.37
  303                266.86      1.70      1.58
  305                168.48      0.48      0.09
  307                435.35      1.23      0.54
  309                226.68      1.45      1.17
  311               -372.41      1.06      0.41
  313                532.90      1.51      0.79
  315              -1386.47      0.98      0.16
  317                111.63      0.71      0.31
  319                 71.29      0.20      0.02
  321               7183.40      3.26      0.97
  323                 79.13      0.22      0.02
  325                104.11      0.66      0.28
  329              13190.98      5.99      3.02
  330                  0.00      0.00      0.00
  333                 -0.00      0.00      0.00
  10                   0.00      0.00      0.00  Pump
  335              13190.98      0.00    -93.15  Pump
   
   
  Node Results at 24:00:00 hrs:
  --------------------------------------------------------
                     Demand      Head  Pressure  Chemical
  Node                  gpm        ft       psi      mg/L
  --------------------------------------------------------
  10                   0.00    146.58     -0.18      0.00
  15                 610.77    128.17     41.67      0.00
  20                   0.00    160.50     13.65      0.00
  35                1400.79    148.01     58.72      0.00
  40                   0.00    147.99      6.97      0.00
  50                   0.00    139.47      9.95      0.00
  60                   0.00    209.12     90.61      0.00
  601                  0.00    303.16    131.36      0.00
  61                   0.00    303.16    131.36      0.00
  101                302.02    146.58     45.32      0.00
  103                211.79    146.56     44.87      0.00
  105                215.24    148.02     51.79      0.00
  107                 86.88    148.02     54.60      0.00
  109                367.93    146.58     54.72      0.00
  111                225.68    147.67     59.65      0.00
  113                 31.82    147.81     63.18      0.00
  115                 82.84    148.37     58.22      0.00
  117                187.16    151.48     59.74      0.00
  119                280.05    159.55     68.27      0.00
  120                  0.00    156.93     68.00      0.00
  121                 66.19    163.07     71.53      0.00
  123                  0.00    167.48     67.80      0.00
  125                 72.50    162.55     65.67      0.00
  127                 28.08    161.10     45.54      0.00
  129                  0.00    161.09     47.70      0.00
  131                 67.97    161.06     67.19      0.00
  139                  9.37    155.07     53.76      0.00
  141                 15.66    150.83     63.62      0.00
  143                  9.86    140.26     62.73      0.00
  145                 43.93    151.96     65.41      0.00
  147                 13.59    152.85     58.21      0.00
  149                 43.04    153.23     59.46      0.00
  151                229.72    157.11     53.56      0.00
  153                 70.23    157.21     39.43      0.00
  157                 82.35    157.13     62.41      0.00
  159                 65.70    153.81     64.05      0.00
  161                 25.12    151.56     63.94      0.00
  163                 14.98    151.11     63.31      0.00
  164                  0.00    151.11     63.31      0.00
  166                  4.13    151.11     66.34      0.00
  167                 23.15    149.28     66.85      0.00
  169                  0.00    149.28     66.85      0.00
  171                 62.55    148.24     65.96      0.00
  173                  0.00    148.21     65.95      0.00
  177                 92.49    148.01     60.67      0.00
  179                  0.00    148.01     60.66      0.00
  181                  0.00    148.02     60.67      0.00
  183                  0.00    147.99     59.36      0.00
  184                  0.00    146.39     56.50      0.00
  185                 40.78    147.02     56.77      0.00
  187                  0.00    147.60     58.54      0.00
  189                171.59    148.07     62.43      0.00
  191                130.22    147.71     53.17      0.00
  193                113.38    147.86     56.27      0.00
  195                  0.00    147.94     57.38      0.00
  197                 27.09    147.69     54.03      0.00
  199                189.72    142.51     62.62      0.00
  201                 70.93    141.73     61.37      0.00
  203               4398.49    141.57     60.47      0.00
  204                  0.00    147.40     54.77      0.00
  205                103.92    142.43     52.62      0.00
  206                  0.00    141.07     60.69      0.00
  207                110.33    141.53     57.43      0.00
  208                  0.00    140.55     53.97      0.00
  209                  1.38    139.65     61.38      0.00
  211                 13.79    139.35     57.35      0.00
  213                 22.16    139.25     57.30      0.00
  215                146.58    138.98     57.19      0.00
  217                 38.51    138.95     57.61      0.00
  219                 65.70    138.94     58.47      0.00
  225                 36.25    138.95     56.74      0.00
  229                102.05    138.96     55.66      0.00
  231                 26.20    138.95     58.04      0.00
  237                 24.82    139.04     54.18      0.00
  239                 70.93    139.00     54.60      6.90
  241                  0.00    139.00     54.60      0.00
  243                  6.90    139.00     54.16      0.00
  247                111.90    139.00     52.43      6.55
  249                  0.00    139.00     52.43    184.52
  251                 38.41    139.00     47.23      0.00
  253                 86.69    138.97     44.62      0.00
  255                 64.22    139.05     48.55      0.00
  257                  0.00    153.59     59.18      0.00
  259                  0.00    153.12     55.51      0.00
  261                  0.00    151.43     65.61      0.00
  263                  0.00    151.25     65.54      0.00
  265                  0.00    149.86     64.94      0.00
  267                  0.00    148.07     55.06      0.00
  269                  0.00    148.56     64.37      0.00
  271                  0.00    148.08     61.56      0.00
  273                  0.00    142.44     58.25      0.00
  275                  0.00    141.72     57.07      0.00
  River           -13089.72    220.00      0.00      0.00  Reservoir
  Lake                 0.00    167.00      0.00      0.00  Reservoir
  1                   63.39    147.99      6.97      0.00  Tank
  2                 -245.22    139.47      9.95      0.00  Tank
  3                 2015.00    160.50     13.65      0.00  Tank
   
   
  Link Results at 24:00:00 hrs:
  ----------------------------------------------
                       Flow  Velocity  Headloss
  Link                  gpm       fps   /1000ft
  ----------------------------------------------
  20               -2015.00      0.08      0.00
  40                 -63.39      0.00      0.00
  50                 245.22      0.01      0.00
  60               13089.72      9.28      8.84
  101                  0.00      0.00      0.00
  103                142.83      0.23      0.02
  105               -444.85      1.26      0.57
  107                  3.72      0.01      0.00
  109                -68.96      0.11      0.00
  111               -436.89      1.24      0.55
  112                462.14      1.31      0.61
  113               -159.36      0.45      0.08
  114                104.98      0.67      0.28
  115                -83.16      0.53      0.18
  116                -86.20      0.24      0.03
  117                663.80      1.88      1.19
  119               -733.11      2.08      1.43
  120               1207.25      3.42      3.59
  121               1077.67      3.06      2.91
  122                376.82      2.41      3.00
  123               9918.21      4.50      1.76
  125              13089.71      5.94      2.94
  129               2728.49      1.94      0.56
  131               2428.92      1.72      0.45
  133              -2015.00      2.06      0.77
  135                385.84      0.27      0.01
  137                 67.97      0.11      0.00
  145                317.87      2.03      2.19
  147                308.51      1.97      2.07
  149               -620.63      3.96      7.55
  151               -610.77      3.90      7.33
  153                327.78      0.93      0.32
  155                371.71      1.05      0.41
  159               -385.31      1.09      0.43
  161               -428.35      2.73      3.80
  163               -156.84      0.44      0.08
  169                227.07      1.45      1.17
  171                501.23      1.42      0.71
  173               7929.68      3.60      1.16
  175               7847.33      3.56      1.14
  177               7781.63      3.53      1.12
  179               7490.04      3.40      1.05
  180                  4.13      0.01      0.00
  181                  4.13      0.01      0.00
  183               7247.62      3.29      0.98
  185                -23.15      0.15      0.02
  186                308.55      1.97      2.07
  187               6580.96      2.99      0.82
  189               4922.02      2.23      0.48
  191              -1596.39      1.13      0.21
  193              -1400.79      0.99      0.16
  195                317.58      0.90      0.30
  197                225.09      0.64      0.16
  199                161.70      0.46      0.09
  201                -63.39      0.18      0.02
  202                562.65      3.59      6.30
  203                294.89      1.88      1.90
  204                562.65      1.60      0.87
  205                308.55      0.88      0.29
  207                133.19      0.38      0.06
  209                200.36      1.28      0.93
  211                643.51      1.83      1.12
  213                108.19      0.31      0.04
  215                -16.39      0.05      0.00
  217               -306.58      0.87      0.28
  219               -266.48      0.76      0.22
  221                266.48      1.70      1.58
  223                -68.17      0.19      0.02
  225                -41.07      0.12      0.01
  229               4922.02      3.49      1.43
  231               4560.06      3.23      1.24
  233               4398.49      3.12      1.35
  235                172.24      0.49      0.10
  237                517.99      1.47      0.75
  238                611.28      1.73      1.02
  239                203.63      0.58      0.13
  240                611.28      1.73      1.02
  241                611.28      1.73      1.02
  243                609.90      0.97      0.25
  245                378.54      0.60      0.10
  247                287.04      0.46      0.06
  249                140.46      0.22      0.02
  251                 65.70      0.14      0.01
  257                 36.25      0.10      0.01
  261                 69.33      0.44      0.13
  263                 26.20      0.07      0.00
  269                217.58      0.62      0.15
  271                 58.92      0.38      0.10
  273                133.84      0.38      0.06
  275                 27.84      0.08      0.00
  277                  6.90      0.02      0.00
  281                 20.94      0.09      0.00
  283                 35.07      0.10      0.01
  285                -33.14      0.09      0.00
  287                -57.83      0.24      0.03
  289                245.22      1.00      0.46
  291                 86.69      0.35      0.07
  293                 36.48      0.23      0.04
  295                  1.93      0.01      0.00
  297                506.40      3.23      5.18
  299                243.38      1.55      1.33
  301                243.38      1.55      1.33
  303                263.02      1.68      1.54
  305                157.40      0.45      0.08
  307                420.42      1.19      0.51
  309                223.30      1.43      1.14
  311               -239.69      0.68      0.18
  313                521.53      1.48      0.76
  315              -1718.37      1.22      0.24
  317                112.99      0.72      0.32
  319                 59.26      0.17      0.01
  321               7470.92      3.39      1.04
  323                 90.64      0.26      0.03
  325                121.98      0.78      0.37
  329              13089.71      5.94      2.98
  330                  0.00      0.00      0.00
  333                 -0.00      0.00      0.00
  10                   0.00      0.00      0.00  Pump
  335              13089.72      0.00    -94.04  Pump
   
  Analysis ended Wed May 06 17:14:53 2020
