  Page 1                                    Wed May 06 17:17:53 2020

  ******************************************************************
  *                           E P A N E T                          *
  *                   Hydraulic and Water Quality                  *
  *                   Analysis for Pipe Networks                   *
  *                         Version 2.00.12                        *
  ******************************************************************
  
  Analysis begun Wed May 06 17:17:53 2020

   
  Hydraulic Status:
  -----------------------------------------------------------------------
     0:00:00: Balanced after 5 trials
     0:00:00: Reservoir River is emptying
     0:00:00: Reservoir Lake is closed
     0:00:00: Tank 1 is filling at 13.10 ft
     0:00:00: Tank 2 is emptying at 23.50 ft
     0:00:00: Tank 3 is filling at 29.00 ft
   
     0:05:00: Balanced after 2 trials
   
     0:10:00: Balanced after 2 trials
   
     0:15:00: Balanced after 2 trials
   
     0:20:00: Balanced after 2 trials
   
     0:25:00: Balanced after 2 trials
   
     0:30:00: Balanced after 2 trials
   
     0:35:00: Balanced after 2 trials
   
     0:40:00: Balanced after 2 trials
   
     0:45:00: Balanced after 2 trials
   
     0:50:00: Balanced after 2 trials
   
     0:55:00: Balanced after 2 trials
   
     1:00:00: Pump 10 changed by timer control
     1:00:00: Balanced after 7 trials
     1:00:00: Reservoir Lake is emptying
     1:00:00: Pump 10 changed from closed to open
   
     1:05:00: Balanced after 2 trials
   
     1:10:00: Balanced after 2 trials
   
     1:15:00: Balanced after 2 trials
   
     1:20:00: Balanced after 2 trials
   
     1:25:00: Balanced after 2 trials
   
     1:30:00: Balanced after 2 trials
   
     1:35:00: Balanced after 2 trials
   
     1:40:00: Balanced after 2 trials
   
     1:45:00: Balanced after 2 trials
   
     1:50:00: Balanced after 2 trials
   
     1:55:00: Balanced after 1 trials
   
     2:00:00: Balanced after 3 trials
     2:00:00: Tank 2 is filling at 21.50 ft
   
     2:05:00: Balanced after 1 trials
   
     2:10:00: Balanced after 1 trials
   
     2:15:00: Balanced after 1 trials
   
     2:20:00: Balanced after 1 trials
   
     2:25:00: Balanced after 1 trials
   
     2:30:00: Balanced after 1 trials
   
     2:35:00: Balanced after 1 trials
   
     2:40:00: Balanced after 1 trials
   
     2:45:00: Balanced after 1 trials
   
     2:50:00: Balanced after 1 trials
   
     2:55:00: Balanced after 1 trials
   
     3:00:00: Balanced after 2 trials
   
     3:05:00: Balanced after 1 trials
   
     3:10:00: Balanced after 1 trials
   
     3:15:00: Balanced after 1 trials
   
     3:20:00: Balanced after 1 trials
   
     3:25:00: Balanced after 1 trials
   
     3:30:00: Balanced after 1 trials
   
     3:35:00: Balanced after 1 trials
   
     3:40:00: Balanced after 1 trials
   
     3:45:00: Balanced after 1 trials
   
     3:50:00: Balanced after 1 trials
   
     3:55:00: Balanced after 1 trials
   
     4:00:00: Balanced after 3 trials
   
     4:05:00: Balanced after 1 trials
   
     4:10:00: Balanced after 1 trials
   
     4:15:00: Balanced after 1 trials
   
     4:20:00: Balanced after 1 trials
   
     4:20:05: Pump 335 changed by Tank 1 control
     4:20:05: Pipe 330 changed by Tank 1 control
     4:20:05: Balanced after 4 trials
     4:20:05: Pipe 330 changed from closed to open
     4:20:05: Pump 335 changed from open to closed
   
     4:25:00: Balanced after 2 trials
   
     4:30:00: Balanced after 2 trials
   
     4:35:00: Balanced after 2 trials
   
     4:40:00: Balanced after 2 trials
   
     4:45:00: Balanced after 2 trials
   
     4:50:00: Balanced after 2 trials
   
     4:55:00: Balanced after 2 trials
   
     5:00:00: Balanced after 3 trials
   
     5:05:00: Balanced after 2 trials
   
     5:10:00: Balanced after 2 trials
   
     5:15:00: Balanced after 2 trials
   
     5:20:00: Balanced after 2 trials
   
     5:25:00: Balanced after 2 trials
   
     5:30:00: Balanced after 2 trials
   
     5:35:00: Balanced after 2 trials
   
     5:40:00: Balanced after 2 trials
   
     5:45:00: Balanced after 2 trials
   
     5:50:00: Balanced after 2 trials
   
     5:55:00: Balanced after 2 trials
   
     6:00:00: Balanced after 3 trials
   
     6:05:00: Balanced after 1 trials
   
     6:10:00: Balanced after 1 trials
   
     6:15:00: Balanced after 1 trials
   
     6:20:00: Balanced after 1 trials
   
     6:25:00: Balanced after 1 trials
   
     6:30:00: Balanced after 1 trials
   
     6:35:00: Balanced after 1 trials
   
     6:40:00: Balanced after 1 trials
   
     6:45:00: Balanced after 1 trials
   
     6:50:00: Balanced after 1 trials
   
     6:55:00: Balanced after 1 trials
   
     7:00:00: Balanced after 3 trials
   
     7:05:00: Balanced after 1 trials
   
     7:10:00: Balanced after 1 trials
   
     7:15:00: Balanced after 1 trials
   
     7:20:00: Balanced after 1 trials
   
     7:25:00: Balanced after 1 trials
   
     7:30:00: Balanced after 1 trials
   
     7:35:00: Balanced after 1 trials
   
     7:40:00: Balanced after 1 trials
   
     7:45:00: Balanced after 1 trials
   
     7:50:00: Balanced after 1 trials
   
     7:55:00: Balanced after 1 trials
   
     8:00:00: Balanced after 2 trials
   
     8:05:00: Balanced after 1 trials
   
     8:10:00: Balanced after 1 trials
   
     8:15:00: Balanced after 1 trials
   
     8:20:00: Balanced after 1 trials
   
     8:25:00: Balanced after 1 trials
   
     8:30:00: Balanced after 1 trials
   
     8:35:00: Balanced after 1 trials
   
     8:40:00: Balanced after 1 trials
   
     8:45:00: Balanced after 1 trials
   
     8:50:00: Balanced after 1 trials
   
     8:55:00: Balanced after 1 trials
   
     9:00:00: Balanced after 4 trials
     9:00:00: Tank 3 is emptying at 35.50 ft
   
     9:05:00: Balanced after 2 trials
   
     9:10:00: Balanced after 2 trials
   
     9:15:00: Balanced after 2 trials
   
     9:20:00: Balanced after 2 trials
   
     9:25:00: Balanced after 2 trials
   
     9:30:00: Balanced after 2 trials
   
     9:35:00: Balanced after 2 trials
   
     9:40:00: Balanced after 2 trials
   
     9:45:00: Balanced after 2 trials
   
     9:50:00: Balanced after 2 trials
   
     9:55:00: Balanced after 2 trials
   
    10:00:00: Balanced after 3 trials
   
    10:05:00: Balanced after 2 trials
   
    10:10:00: Balanced after 2 trials
   
    10:15:00: Balanced after 2 trials
   
    10:20:00: Balanced after 2 trials
   
    10:25:00: Balanced after 2 trials
   
    10:30:00: Balanced after 2 trials
   
    10:35:00: Balanced after 2 trials
   
    10:40:00: Balanced after 2 trials
   
    10:45:00: Balanced after 2 trials
   
    10:50:00: Balanced after 2 trials
   
    10:55:00: Balanced after 2 trials
   
    11:00:00: Balanced after 4 trials
    11:00:00: Tank 1 is emptying at 23.04 ft
    11:00:00: Tank 2 is emptying at 28.16 ft
   
    11:05:00: Balanced after 1 trials
   
    11:10:00: Balanced after 1 trials
   
    11:15:00: Balanced after 1 trials
   
    11:20:00: Balanced after 1 trials
   
    11:25:00: Balanced after 1 trials
   
    11:30:00: Balanced after 1 trials
   
    11:35:00: Balanced after 1 trials
   
    11:40:00: Balanced after 1 trials
   
    11:45:00: Balanced after 1 trials
   
    11:50:00: Balanced after 1 trials
   
    11:55:00: Balanced after 1 trials
   
    12:00:00: Balanced after 3 trials
   
    12:05:00: Balanced after 1 trials
   
    12:10:00: Balanced after 1 trials
   
    12:15:00: Balanced after 1 trials
   
    12:20:00: Balanced after 1 trials
   
    12:25:00: Balanced after 1 trials
   
    12:30:00: Balanced after 1 trials
   
    12:35:00: Balanced after 1 trials
   
    12:40:00: Balanced after 1 trials
   
    12:45:00: Balanced after 1 trials
   
    12:50:00: Balanced after 1 trials
   
    12:55:00: Balanced after 1 trials
   
    13:00:00: Balanced after 3 trials
    13:00:00: Tank 2 is filling at 27.44 ft
   
    13:05:00: Balanced after 1 trials
   
    13:10:00: Balanced after 1 trials
   
    13:15:00: Balanced after 1 trials
   
    13:20:00: Balanced after 1 trials
   
    13:25:00: Balanced after 1 trials
   
    13:30:00: Balanced after 1 trials
   
    13:35:00: Balanced after 1 trials
   
    13:40:00: Balanced after 1 trials
   
    13:45:00: Balanced after 1 trials
    13:45:00: Tank 2 is closed at 27.47 ft
   
    13:50:00: Balanced after 1 trials
    13:50:00: Tank 2 is emptying at 27.47 ft
   
    13:55:00: Balanced after 1 trials
   
    14:00:00: Balanced after 3 trials
   
    14:05:00: Balanced after 1 trials
   
    14:10:00: Balanced after 1 trials
   
    14:15:00: Balanced after 1 trials
   
    14:20:00: Balanced after 1 trials
   
    14:25:00: Balanced after 1 trials
   
    14:30:00: Balanced after 1 trials
   
    14:35:00: Balanced after 1 trials
   
    14:40:00: Balanced after 1 trials
   
    14:45:00: Balanced after 1 trials
   
    14:50:00: Balanced after 1 trials
   
    14:55:00: Balanced after 1 trials
   
    15:00:00: Pump 10 changed by timer control
    15:00:00: Balanced after 4 trials
    15:00:00: Reservoir Lake is closed
    15:00:00: Tank 2 is filling at 27.16 ft
    15:00:00: Pump 10 changed from open to closed
   
    15:05:00: Balanced after 2 trials
   
    15:10:00: Balanced after 2 trials
   
    15:15:00: Balanced after 2 trials
   
    15:20:00: Balanced after 2 trials
   
    15:25:00: Balanced after 2 trials
   
    15:30:00: Balanced after 2 trials
   
    15:35:00: Balanced after 2 trials
   
    15:40:00: Balanced after 2 trials
    15:40:00: Tank 2 is emptying at 27.22 ft
   
    15:45:00: Balanced after 2 trials
   
    15:50:00: Balanced after 2 trials
   
    15:55:00: Balanced after 2 trials
   
    16:00:00: Balanced after 3 trials
    16:00:00: Tank 2 is filling at 27.20 ft
   
    16:05:00: Balanced after 2 trials
   
    16:10:00: Balanced after 2 trials
   
    16:15:00: Balanced after 2 trials
   
    16:20:00: Balanced after 2 trials
   
    16:25:00: Balanced after 2 trials
   
    16:30:00: Balanced after 2 trials
   
    16:35:00: Balanced after 2 trials
   
    16:40:00: Balanced after 2 trials
   
    16:45:00: Balanced after 2 trials
   
    16:50:00: Balanced after 2 trials
   
    16:55:00: Balanced after 2 trials
   
    17:00:00: Balanced after 4 trials
    17:00:00: Tank 1 is filling at 20.02 ft
   
    17:05:00: Balanced after 2 trials
   
    17:10:00: Balanced after 2 trials
   
    17:15:00: Balanced after 2 trials
   
    17:20:00: Balanced after 2 trials
   
    17:25:00: Balanced after 2 trials
   
    17:30:00: Balanced after 2 trials
   
    17:35:00: Balanced after 2 trials
   
    17:40:00: Balanced after 2 trials
   
    17:45:00: Balanced after 2 trials
   
    17:50:00: Balanced after 2 trials
   
    17:55:00: Balanced after 2 trials
   
    18:00:00: Balanced after 3 trials
    18:00:00: Tank 1 is emptying at 20.26 ft
   
    18:05:00: Balanced after 2 trials
   
    18:10:00: Balanced after 2 trials
   
    18:15:00: Balanced after 2 trials
   
    18:20:00: Balanced after 2 trials
   
    18:25:00: Balanced after 2 trials
   
    18:30:00: Balanced after 2 trials
   
    18:35:00: Balanced after 2 trials
   
    18:40:00: Balanced after 2 trials
   
    18:45:00: Balanced after 2 trials
   
    18:50:00: Balanced after 2 trials
   
    18:55:00: Balanced after 2 trials
   
    19:00:00: Balanced after 3 trials
   
    19:05:00: Balanced after 2 trials
   
    19:10:00: Balanced after 2 trials
   
    19:15:00: Balanced after 1 trials
   
    19:20:00: Balanced after 1 trials
   
    19:25:00: Balanced after 1 trials
   
    19:30:00: Balanced after 1 trials
   
    19:35:00: Balanced after 1 trials
   
    19:40:00: Balanced after 1 trials
   
    19:45:00: Balanced after 1 trials
    19:45:00: Tank 2 is emptying at 29.33 ft
   
    19:50:00: Balanced after 1 trials
   
    19:55:00: Balanced after 1 trials
   
    20:00:00: Balanced after 3 trials
   
    20:05:00: Balanced after 1 trials
   
    20:10:00: Balanced after 1 trials
   
    20:15:00: Balanced after 1 trials
   
    20:20:00: Balanced after 1 trials
   
    20:25:00: Balanced after 1 trials
   
    20:30:00: Balanced after 1 trials
   
    20:35:00: Balanced after 1 trials
   
    20:40:00: Balanced after 1 trials
   
    20:45:00: Balanced after 1 trials
   
    20:50:00: Balanced after 1 trials
   
    20:55:00: Balanced after 1 trials
   
    21:00:00: Balanced after 3 trials
   
    21:05:00: Balanced after 2 trials
   
    21:10:00: Balanced after 2 trials
   
    21:15:00: Balanced after 2 trials
   
    21:20:00: Balanced after 2 trials
   
    21:25:00: Balanced after 2 trials
   
    21:30:00: Balanced after 2 trials
   
    21:35:00: Balanced after 2 trials
   
    21:40:00: Balanced after 2 trials
   
    21:45:00: Balanced after 2 trials
   
    21:50:00: Balanced after 2 trials
   
    21:55:00: Balanced after 2 trials
   
    22:00:00: Balanced after 3 trials
   
    22:05:00: Balanced after 2 trials
   
    22:09:21: Pump 335 changed by Tank 1 control
    22:09:21: Pipe 330 changed by Tank 1 control
    22:09:21: Balanced after 5 trials
    22:09:21: Tank 3 is filling at 29.60 ft
    22:09:21: Pipe 330 changed from open to closed
    22:09:21: Pump 335 changed from closed to open
   
    22:10:00: Balanced after 1 trials
   
    22:15:00: Balanced after 2 trials
   
    22:20:00: Balanced after 2 trials
   
    22:25:00: Balanced after 2 trials
   
    22:30:00: Balanced after 2 trials
   
    22:35:00: Balanced after 2 trials
   
    22:40:00: Balanced after 2 trials
   
    22:45:00: Balanced after 2 trials
   
    22:50:00: Balanced after 2 trials
   
    22:55:00: Balanced after 2 trials
   
    23:00:00: Balanced after 3 trials
   
    23:05:00: Balanced after 2 trials
   
    23:10:00: Balanced after 2 trials
   
    23:15:00: Balanced after 2 trials
   
    23:20:00: Balanced after 2 trials
   
    23:25:00: Balanced after 2 trials
   
    23:30:00: Balanced after 2 trials
   
    23:35:00: Balanced after 2 trials
   
    23:40:00: Balanced after 2 trials
   
    23:45:00: Balanced after 2 trials
   
    23:50:00: Balanced after 2 trials
   
    23:55:00: Balanced after 2 trials
   
    24:00:00: Balanced after 4 trials
    24:00:00: Tank 1 is filling at 15.03 ft
   
   
  Node Results at 0:00:00 hrs:
  --------------------------------------------------------
                     Demand      Head  Pressure  Chemical
  Node                  gpm        ft       psi      mg/L
  --------------------------------------------------------
  10                   0.00    145.67     -0.58      0.00
  15                 644.97    123.62     39.70      0.00
  20                   0.00    158.00     12.57      0.00
  35                1539.17    145.65     57.69      0.00
  40                   0.00    145.00      5.68      0.00
  50                   0.00    140.00     10.18      0.00
  60                   0.00    209.01     90.56      0.00
  601                  0.00    302.45    131.05      0.00
  61                   0.00    302.45    131.05      0.00
  101                243.14    145.67     44.92      0.00
  103                170.50    145.64     44.47      0.00
  105                173.27    146.95     51.33      0.00
  107                 69.94    146.94     54.14      0.00
  109                296.19    145.64     54.31      0.00
  111                181.68    146.15     59.00      0.00
  113                 25.61    146.17     62.47      0.00
  115                 66.69    147.00     57.63      0.00
  117                150.67    150.11     59.15      0.00
  119                225.45    157.53     67.39      0.00
  120                  0.00    155.13     67.22      0.00
  121                 53.29    160.99     70.63      0.00
  123                  0.00    165.45     66.92      0.00
  125                 58.37    160.41     64.74      0.00
  127                 22.60    158.73     44.51      0.00
  129                  0.00    158.72     46.68      0.00
  131                 54.72    158.70     66.17      0.00
  139                  7.54    152.82     52.78      0.00
  141                 12.61    148.61     62.66      0.00
  143                  7.94    137.00     61.31      0.00
  145                 35.37    149.94     64.54      0.00
  147                 10.94    150.93     57.38      0.00
  149                 34.65    151.35     58.65      0.00
  151                184.93    155.41     52.82      0.00
  153                 56.54    155.51     38.70      0.00
  157                 66.29    155.07     61.52      0.00
  159                 52.89    151.69     63.13      0.00
  161                 20.22    149.39     63.00      0.00
  163                 12.06    148.93     62.36      0.00
  164                  0.00    148.93     62.36      0.00
  166                  3.33    148.93     65.40      0.00
  167                 18.64    147.04     65.88      0.00
  169                  0.00    147.04     65.88      0.00
  171                 50.36    145.93     64.97      0.00
  173                  0.00    145.91     64.96      0.00
  177                 74.46    145.64     59.64      0.00
  179                  0.00    145.63     59.63      0.00
  181                  0.00    145.65     59.65      0.00
  183                  0.00    145.63     58.34      0.00
  184                  0.00    144.30     55.59      0.00
  185                 32.83    144.95     55.87      0.00
  187                  0.00    145.73     57.73      0.00
  189                138.14    146.04     61.55      0.00
  191                104.83    146.06     52.46      0.00
  193                 91.28    146.15     55.53      0.00
  195                  0.00    146.22     56.64      0.00
  197                 21.81    146.08     53.33      0.00
  199                152.73    140.24     61.63      0.00
  201                 57.10    139.42     60.37      0.00
  203               4777.93    139.23     59.46      0.00
  204                  0.00    145.45     53.93      0.00
  205                 83.66    140.21     51.66      0.00
  206                  0.00    139.33     59.94      0.00
  207                 88.82    139.47     56.53      0.00
  208                  0.00    139.18     53.37      0.00
  209                  1.11    138.91     61.05      0.00
  211                 11.10    138.82     57.12      0.00
  213                 17.84    138.76     57.09      0.00
  215                118.00    138.58     57.01      0.00
  217                 31.00    138.56     57.44      0.00
  219                 52.89    138.55     58.30      0.00
  225                 29.18    138.56     56.57      0.00
  229                 82.15    138.70     55.55      0.00
  231                 21.09    138.69     57.93      0.00
  237                 19.98    138.81     54.08      0.00
  239                 57.10    138.82     54.52      0.00
  241                  0.00    138.82     54.52      0.00
  243                  5.56    138.82     54.08      0.00
  247                 90.09    138.83     52.35      0.00
  249                  0.00    138.83     52.35      0.00
  251                 30.92    138.85     47.16      0.00
  253                 69.79    139.05     44.65      0.00
  255                 51.70    139.10     48.57      0.00
  257                  0.00    152.05     58.52      0.00
  259                  0.00    151.62     54.87      0.00
  261                  0.00    150.06     65.02      0.00
  263                  0.00    149.90     64.95      0.00
  265                  0.00    147.64     63.97      0.00
  267                  0.00    146.16     54.23      0.00
  269                  0.00    146.41     63.44      0.00
  271                  0.00    145.73     60.55      0.00
  273                  0.00    140.21     57.29      0.00
  275                  0.00    139.45     56.09      0.00
  River           -13158.41    220.00      0.00      0.00  Reservoir
  Lake                 0.00    167.00      0.00      0.00  Reservoir
  1                  428.06    145.00      5.68      0.00  Tank
  2                 -369.84    140.00     10.18      0.00  Tank
  3                 2236.54    158.00     12.57      0.00  Tank
   
   
  Link Results at 0:00:00 hrs:
  ----------------------------------------------
                       Flow  Velocity  Headloss
  Link                  gpm       fps   /1000ft
  ----------------------------------------------
  20               -2236.54      0.09      0.00
  40                -428.06      0.02      0.00
  50                 369.84      0.02      0.00
  60               13158.41      9.33      8.93
  101                  0.00      0.00      0.00
  103                175.13      0.28      0.02
  105               -418.27      1.19      0.50
  107                 40.28      0.11      0.01
  109                  4.63      0.01      0.00
  111               -291.56      0.83      0.26
  112                508.68      1.44      0.72
  113                -51.08      0.14      0.01
  114                129.03      0.82      0.41
  115                -29.66      0.19      0.03
  116                 52.34      0.15      0.01
  117                631.82      1.79      1.08
  119               -734.06      2.08      1.43
  120               1149.22      3.26      3.28
  121               1031.85      2.93      2.69
  122                367.32      2.34      2.86
  123               9834.23      4.46      1.73
  125              13158.41      5.97      2.97
  129               2903.58      2.06      0.62
  131               2628.57      1.86      0.52
  133              -2236.54      2.28      0.93
  135                369.42      0.26      0.01
  137                 54.72      0.09      0.00
  145                314.70      2.01      2.15
  147                307.16      1.96      2.05
  149               -652.91      4.17      8.29
  151               -644.97      4.12      8.11
  153                358.35      1.02      0.38
  155                393.72      1.12      0.45
  159               -404.67      1.15      0.47
  161               -439.31      2.80      3.98
  163               -160.11      0.45      0.09
  169                216.65      1.38      1.08
  171                464.14      1.32      0.61
  173               7995.41      3.63      1.18
  175               7929.12      3.60      1.16
  177               7876.23      3.57      1.15
  179               7608.36      3.45      1.08
  180                  3.33      0.01      0.00
  181                  3.33      0.01      0.00
  183               7391.81      3.36      1.02
  185                -18.64      0.12      0.01
  186                360.88      2.30      2.77
  187               6778.31      3.08      0.87
  189               4907.64      2.23      0.48
  191              -1820.32      1.29      0.26
  193              -1539.17      1.09      0.19
  195                428.43      1.22      0.53
  197                353.97      1.00      0.37
  199                -74.08      0.21      0.02
  201               -428.06      1.21      0.53
  202                572.27      3.65      6.50
  203                244.23      1.56      1.34
  204                572.27      1.62      0.90
  205                360.88      1.02      0.38
  207                318.32      0.90      0.30
  209                161.05      1.03      0.62
  211                594.86      1.69      0.97
  213                199.83      0.57      0.13
  215                169.92      0.48      0.10
  217               -239.96      0.68      0.18
  219               -247.65      0.70      0.19
  221                247.65      1.58      1.38
  223                 64.70      0.18      0.02
  225                 86.51      0.25      0.03
  229               4907.64      3.48      1.42
  231               4660.47      3.31      1.29
  233               4777.93      3.39      1.57
  235                 94.44      0.27      0.03
  237                466.66      1.32      0.62
  238                319.67      0.91      0.31
  239                -58.17      0.17      0.01
  240                319.67      0.91      0.31
  241                319.67      0.91      0.31
  243                318.56      0.51      0.08
  245                279.24      0.45      0.06
  247                231.08      0.37      0.04
  249                113.08      0.18      0.01
  251                 52.89      0.11      0.01
  257                 29.18      0.08      0.00
  261                 30.32      0.19      0.03
  263                 21.09      0.06      0.00
  269                 28.23      0.08      0.00
  271                 72.93      0.47      0.14
  273                -64.68      0.18      0.02
  275                -42.24      0.12      0.01
  277                  5.56      0.02      0.00
  281                -47.79      0.20      0.02
  283                -79.55      0.23      0.02
  285                 17.04      0.05      0.00
  287               -154.92      0.63      0.19
  289                369.84      1.51      0.98
  291                 69.79      0.29      0.04
  293                 93.43      0.60      0.23
  295                -62.51      0.18      0.01
  297                484.70      3.09      4.78
  299                232.87      1.49      1.23
  301                232.87      1.49      1.23
  303                251.83      1.61      1.42
  305                147.12      0.42      0.07
  307                398.95      1.13      0.46
  309                201.16      1.28      0.94
  311                -31.24      0.09      0.00
  313                447.58      1.27      0.57
  315              -1967.60      1.40      0.30
  317                116.40      0.74      0.34
  319                -21.95      0.06      0.00
  321               7592.97      3.45      1.07
  323               -174.56      0.50      0.10
  325                147.28      0.94      0.53
  329              13158.41      5.97      3.01
  330                  0.00      0.00      0.00
  333                 -0.00      0.00      0.00
  10                   0.00      0.00      0.00  Pump
  335              13158.41      0.00    -93.44  Pump
   
   
  Node Results at 0:05:00 hrs:
  --------------------------------------------------------
                     Demand      Head  Pressure  Chemical
  Node                  gpm        ft       psi      mg/L
  --------------------------------------------------------
  10                   0.00    145.71     -0.56      0.00
  15                 644.97    123.68     39.72      0.00
  20                   0.00    158.07     12.60      0.00
  35                1539.17    145.68     57.71      0.00
  40                   0.00    145.05      5.70      0.00
  50                   0.00    139.87     10.13      0.00
  60                   0.00    209.01     90.57      0.00
  601                  0.00    302.47    131.06      0.00
  61                   0.00    302.47    131.06      0.00
  101                243.14    145.71     44.94      0.00
  103                170.50    145.68     44.49      0.00
  105                173.27    146.99     51.34      0.00
  107                 69.94    146.98     54.15      0.00
  109                296.19    145.68     54.33      0.00
  111                181.68    146.19     59.01      0.00
  113                 25.61    146.21     62.49      0.00
  115                 66.69    147.03     57.64      0.00
  117                150.67    150.15     59.17      0.00
  119                225.45    157.58     67.41      0.00
  120                  0.00    155.18     67.24      0.00
  121                 53.29    161.05     70.65      0.00
  123                  0.00    165.50     66.95      0.00
  125                 58.37    160.47     64.77      0.00
  127                 22.60    158.80     44.54      0.00
  129                  0.00    158.79     46.70      0.00
  131                 54.72    158.77     66.19      0.00
  139                  7.54    152.88     52.81      0.00
  141                 12.61    148.67     62.68      0.00
  143                  7.94    137.06     61.34      0.00
  145                 35.37    150.00     64.56      0.00
  147                 10.94    150.99     57.41      0.00
  149                 34.65    151.41     58.67      0.00
  151                184.93    155.46     52.85      0.00
  153                 56.54    155.56     38.72      0.00
  157                 66.29    155.12     61.54      0.00
  159                 52.89    151.73     63.14      0.00
  161                 20.22    149.43     63.01      0.00
  163                 12.06    148.97     62.38      0.00
  164                  0.00    148.97     62.38      0.00
  166                  3.33    148.97     65.41      0.00
  167                 18.64    147.07     65.89      0.00
  169                  0.00    147.07     65.89      0.00
  171                 50.36    145.97     64.98      0.00
  173                  0.00    145.94     64.97      0.00
  177                 74.46    145.67     59.65      0.00
  179                  0.00    145.66     59.65      0.00
  181                  0.00    145.69     59.66      0.00
  183                  0.00    145.67     58.35      0.00
  184                  0.00    144.33     55.60      0.00
  185                 32.83    144.98     55.89      0.00
  187                  0.00    145.77     57.74      0.00
  189                138.14    146.08     61.56      0.00
  191                104.83    146.10     52.47      0.00
  193                 91.28    146.19     55.55      0.00
  195                  0.00    146.26     56.66      0.00
  197                 21.81    146.12     53.35      0.00
  199                152.73    140.25     61.64      0.00
  201                 57.10    139.43     60.37      0.00
  203               4777.93    139.24     59.47      0.00
  204                  0.00    145.49     53.94      0.00
  205                 83.66    140.22     51.66      0.00
  206                  0.00    139.33     59.94      0.00
  207                 88.82    139.47     56.53      0.00
  208                  0.00    139.16     53.37      0.00
  209                  1.11    138.87     61.04      0.00
  211                 11.10    138.77     57.10      0.00
  213                 17.84    138.72     57.07      0.00
  215                118.00    138.54     57.00      0.00
  217                 31.00    138.52     57.42      0.00
  219                 52.89    138.51     58.28      0.00
  225                 29.18    138.51     56.55      0.00
  229                 82.15    138.65     55.53      0.00
  231                 21.09    138.65     57.91      0.00
  237                 19.98    138.76     54.06      0.00
  239                 57.10    138.77     54.49      0.00
  241                  0.00    138.77     54.49      0.00
  243                  5.56    138.77     54.06      0.00
  247                 90.09    138.77     52.33      0.00
  249                  0.00    138.77     52.33      0.00
  251                 30.92    138.79     47.14      0.00
  253                 69.79    138.97     44.62      0.00
  255                 51.70    139.02     48.54      0.00
  257                  0.00    152.10     58.54      0.00
  259                  0.00    151.67     54.89      0.00
  261                  0.00    150.11     65.04      0.00
  263                  0.00    149.95     64.97      0.00
  265                  0.00    147.68     63.99      0.00
  267                  0.00    146.20     54.25      0.00
  269                  0.00    146.45     63.46      0.00
  271                  0.00    145.77     60.56      0.00
  273                  0.00    140.22     57.29      0.00
  275                  0.00    139.46     56.10      0.00
  River           -13156.64    220.00      0.00      0.00  Reservoir
  Lake                 0.00    167.00      0.00      0.00  Reservoir
  1                  422.84    145.05      5.70      0.00  Tank
  2                 -358.33    139.87     10.13      0.00  Tank
  3                 2228.47    158.07     12.60      0.00  Tank
   
   
  Link Results at 0:05:00 hrs:
  ----------------------------------------------
                       Flow  Velocity  Headloss
  Link                  gpm       fps   /1000ft
  ----------------------------------------------
  20               -2228.47      0.09      0.00
  40                -422.84      0.02      0.00
  50                 358.33      0.01      0.00
  60               13156.64      9.33      8.93
  101                  0.00      0.00      0.00
  103                175.33      0.28      0.02
  105               -418.47      1.19      0.50
  107                 40.41      0.11      0.01
  109                  4.84      0.01      0.00
  111               -291.36      0.83      0.26
  112                509.13      1.44      0.73
  113                -50.72      0.14      0.01
  114                129.17      0.82      0.41
  115                -29.53      0.19      0.03
  116                 52.84      0.15      0.01
  117                632.15      1.79      1.08
  119               -734.52      2.08      1.43
  120               1149.81      3.26      3.28
  121               1032.39      2.93      2.69
  122                367.53      2.35      2.86
  123               9840.06      4.47      1.73
  125              13156.64      5.97      2.97
  129               2895.77      2.05      0.62
  131               2620.65      1.86      0.52
  133              -2228.47      2.28      0.93
  135                369.57      0.26      0.01
  137                 54.72      0.09      0.00
  145                314.85      2.01      2.15
  147                307.31      1.96      2.05
  149               -652.91      4.17      8.29
  151               -644.97      4.12      8.11
  153                358.20      1.02      0.38
  155                393.57      1.12      0.45
  159               -404.51      1.15      0.47
  161               -439.16      2.80      3.98
  163               -160.21      0.45      0.09
  169                216.75      1.38      1.08
  171                463.88      1.32      0.61
  173               8000.92      3.63      1.18
  175               7934.63      3.60      1.16
  177               7881.74      3.58      1.15
  179               7613.77      3.46      1.08
  180                  3.33      0.01      0.00
  181                  3.33      0.01      0.00
  183               7397.22      3.36      1.02
  185                -18.64      0.12      0.01
  186                361.57      2.31      2.78
  187               6783.77      3.08      0.87
  189               4917.77      2.23      0.48
  191              -1815.64      1.29      0.26
  193              -1539.17      1.09      0.19
  195                423.84      1.20      0.52
  197                349.38      0.99      0.36
  199                -73.46      0.21      0.02
  201               -422.84      1.20      0.51
  202                573.65      3.66      6.53
  203                244.91      1.56      1.35
  204                573.65      1.63      0.91
  205                361.57      1.03      0.39
  207                318.37      0.90      0.30
  209                161.29      1.03      0.62
  211                594.82      1.69      0.97
  213                200.29      0.57      0.13
  215                170.34      0.48      0.10
  217               -240.12      0.68      0.18
  219               -247.75      0.70      0.19
  221                247.75      1.58      1.38
  223                 65.00      0.18      0.02
  225                 86.81      0.25      0.03
  229               4917.77      3.49      1.42
  231               4668.63      3.31      1.29
  233               4777.93      3.39      1.57
  235                 96.41      0.27      0.03
  237                469.65      1.33      0.63
  238                331.18      0.94      0.33
  239                -49.65      0.14      0.01
  240                331.18      0.94      0.33
  241                331.18      0.94      0.33
  243                330.07      0.53      0.08
  245                280.06      0.45      0.06
  247                231.08      0.37      0.04
  249                113.08      0.18      0.01
  251                 52.89      0.11      0.01
  257                 29.18      0.08      0.00
  261                 31.14      0.20      0.03
  263                 21.09      0.06      0.00
  269                 38.91      0.11      0.01
  271                 72.11      0.46      0.14
  273                -53.17      0.15      0.01
  275                -37.88      0.11      0.01
  277                  5.56      0.02      0.00
  281                -43.44      0.18      0.02
  283                -72.39      0.21      0.02
  285                 14.11      0.04      0.00
  287               -147.63      0.60      0.18
  289                358.33      1.46      0.92
  291                 69.79      0.29      0.04
  293                 89.21      0.57      0.21
  295                -58.29      0.17      0.01
  297                484.95      3.10      4.78
  299                232.99      1.49      1.23
  301                232.99      1.49      1.23
  303                251.96      1.61      1.42
  305                147.20      0.42      0.07
  307                399.16      1.13      0.46
  309                201.16      1.28      0.94
  311                -30.81      0.09      0.00
  313                447.45      1.27      0.57
  315              -1963.01      1.39      0.30
  317                116.75      0.75      0.34
  319                -20.34      0.06      0.00
  321               7598.38      3.45      1.07
  323               -166.40      0.47      0.09
  325                147.37      0.94      0.53
  329              13156.64      5.97      3.01
  330                  0.00      0.00      0.00
  333                 -0.00      0.00      0.00
  10                   0.00      0.00      0.00  Pump
  335              13156.64      0.00    -93.45  Pump
   
   
  Node Results at 0:10:00 hrs:
  --------------------------------------------------------
                     Demand      Head  Pressure  Chemical
  Node                  gpm        ft       psi      mg/L
  --------------------------------------------------------
  10                   0.00    145.75     -0.54      0.00
  15                 644.97    123.73     39.75      0.00
  20                   0.00    158.14     12.63      0.00
  35                1539.17    145.72     57.72      0.00
  40                   0.00    145.10      5.72      0.00
  50                   0.00    139.75     10.08      0.00
  60                   0.00    209.02     90.57      0.00
  601                  0.00    302.48    131.07      0.00
  61                   0.00    302.48    131.07      0.00
  101                243.14    145.75     44.95      0.00
  103                170.50    145.71     44.51      0.00
  105                173.27    147.03     51.36      0.00
  107                 69.94    147.02     54.17      0.00
  109                296.19    145.71     54.34      0.00
  111                181.68    146.23     59.03      0.00
  113                 25.61    146.25     62.50      0.00
  115                 66.69    147.07     57.66      0.00
  117                150.67    150.20     59.19      0.00
  119                225.45    157.63     67.43      0.00
  120                  0.00    155.23     67.26      0.00
  121                 53.29    161.10     70.67      0.00
  123                  0.00    165.56     66.97      0.00
  125                 58.37    160.53     64.79      0.00
  127                 22.60    158.87     44.57      0.00
  129                  0.00    158.85     46.73      0.00
  131                 54.72    158.83     66.22      0.00
  139                  7.54    152.94     52.84      0.00
  141                 12.61    148.72     62.71      0.00
  143                  7.94    137.11     61.36      0.00
  145                 35.37    150.05     64.58      0.00
  147                 10.94    151.04     57.43      0.00
  149                 34.65    151.46     58.69      0.00
  151                184.93    155.52     52.87      0.00
  153                 56.54    155.62     38.74      0.00
  157                 66.29    155.17     61.56      0.00
  159                 52.89    151.77     63.16      0.00
  161                 20.22    149.47     63.03      0.00
  163                 12.06    149.00     62.40      0.00
  164                  0.00    149.00     62.40      0.00
  166                  3.33    149.00     65.43      0.00
  167                 18.64    147.11     65.91      0.00
  169                  0.00    147.11     65.91      0.00
  171                 50.36    146.00     65.00      0.00
  173                  0.00    145.98     64.99      0.00
  177                 74.46    145.71     59.67      0.00
  179                  0.00    145.70     59.67      0.00
  181                  0.00    145.73     59.68      0.00
  183                  0.00    145.70     58.37      0.00
  184                  0.00    144.36     55.62      0.00
  185                 32.83    145.01     55.90      0.00
  187                  0.00    145.80     57.76      0.00
  189                138.14    146.11     61.58      0.00
  191                104.83    146.13     52.49      0.00
  193                 91.28    146.23     55.56      0.00
  195                  0.00    146.30     56.67      0.00
  197                 21.81    146.15     53.36      0.00
  199                152.73    140.26     61.64      0.00
  201                 57.10    139.44     60.38      0.00
  203               4777.93    139.26     59.47      0.00
  204                  0.00    145.52     53.96      0.00
  205                 83.66    140.24     51.67      0.00
  206                  0.00    139.32     59.93      0.00
  207                 88.82    139.48     56.54      0.00
  208                  0.00    139.14     53.36      0.00
  209                  1.11    138.84     61.02      0.00
  211                 11.10    138.73     57.08      0.00
  213                 17.84    138.67     57.05      0.00
  215                118.00    138.50     56.98      0.00
  217                 31.00    138.48     57.40      0.00
  219                 52.89    138.47     58.26      0.00
  225                 29.18    138.47     56.53      0.00
  229                 82.15    138.60     55.51      0.00
  231                 21.09    138.60     57.89      0.00
  237                 19.98    138.71     54.04      0.00
  239                 57.10    138.72     54.47      0.00
  241                  0.00    138.72     54.47      0.00
  243                  5.56    138.72     54.04      0.00
  247                 90.09    138.72     52.31      0.00
  249                  0.00    138.72     52.31      0.00
  251                 30.92    138.74     47.12      0.00
  253                 69.79    138.90     44.59      0.00
  255                 51.70    138.95     48.51      0.00
  257                  0.00    152.14     58.56      0.00
  259                  0.00    151.71     54.90      0.00
  261                  0.00    150.15     65.06      0.00
  263                  0.00    149.99     64.99      0.00
  265                  0.00    147.71     64.00      0.00
  267                  0.00    146.23     54.26      0.00
  269                  0.00    146.48     63.47      0.00
  271                  0.00    145.80     60.58      0.00
  273                  0.00    140.24     57.30      0.00
  275                  0.00    139.47     56.10      0.00
  River           -13154.87    220.00      0.00      0.00  Reservoir
  Lake                 0.00    167.00      0.00      0.00  Reservoir
  1                  417.82    145.10      5.72      0.00  Tank
  2                 -347.05    139.75     10.08      0.00  Tank
  3                 2220.45    158.14     12.63      0.00  Tank
   
   
  Link Results at 0:10:00 hrs:
  ----------------------------------------------
                       Flow  Velocity  Headloss
  Link                  gpm       fps   /1000ft
  ----------------------------------------------
  20               -2220.45      0.09      0.00
  40                -417.82      0.02      0.00
  50                 347.05      0.01      0.00
  60               13154.87      9.33      8.92
  101                  0.00      0.00      0.00
  103                175.53      0.28      0.02
  105               -418.67      1.19      0.51
  107                 40.54      0.12      0.01
  109                  5.04      0.01      0.00
  111               -291.16      0.83      0.26
  112                509.58      1.45      0.73
  113                -50.37      0.14      0.01
  114                129.30      0.83      0.41
  115                -29.40      0.19      0.03
  116                 53.32      0.15      0.01
  117                632.48      1.79      1.09
  119               -734.97      2.08      1.43
  120               1150.39      3.26      3.29
  121               1032.92      2.93      2.69
  122                367.73      2.35      2.86
  123               9845.85      4.47      1.74
  125              13154.87      5.97      2.97
  129               2888.01      2.05      0.62
  131               2612.78      1.85      0.51
  133              -2220.45      2.27      0.92
  135                369.72      0.26      0.01
  137                 54.72      0.09      0.00
  145                315.00      2.01      2.15
  147                307.46      1.96      2.06
  149               -652.91      4.17      8.29
  151               -644.97      4.12      8.11
  153                358.05      1.02      0.38
  155                393.42      1.12      0.45
  159               -404.36      1.15      0.47
  161               -439.01      2.80      3.98
  163               -160.32      0.45      0.09
  169                216.85      1.38      1.08
  171                463.63      1.32      0.61
  173               8006.38      3.63      1.18
  175               7940.09      3.60      1.17
  177               7887.20      3.58      1.15
  179               7619.14      3.46      1.08
  180                  3.33      0.01      0.00
  181                  3.33      0.01      0.00
  183               7402.60      3.36      1.02
  185                -18.64      0.12      0.01
  186                362.26      2.31      2.79
  187               6789.17      3.08      0.87
  189               4927.70      2.24      0.48
  191              -1811.12      1.28      0.26
  193              -1539.17      1.09      0.19
  195                419.41      1.19      0.51
  197                344.95      0.98      0.35
  199                -72.86      0.21      0.02
  201               -417.82      1.19      0.50
  202                575.00      3.67      6.55
  203                245.57      1.57      1.36
  204                575.00      1.63      0.91
  205                362.26      1.03      0.39
  207                318.44      0.90      0.30
  209                161.52      1.03      0.62
  211                594.79      1.69      0.97
  213                200.74      0.57      0.13
  215                170.77      0.48      0.10
  217               -240.27      0.68      0.18
  219               -247.84      0.70      0.19
  221                247.84      1.58      1.38
  223                 65.30      0.19      0.02
  225                 87.11      0.25      0.03
  229               4927.70      3.49      1.43
  231               4676.79      3.32      1.30
  233               4777.93      3.39      1.57
  235                 98.18      0.28      0.03
  237                472.41      1.34      0.63
  238                342.46      0.97      0.35
  239                -41.14      0.12      0.01
  240                342.46      0.97      0.35
  241                342.46      0.97      0.35
  243                341.34      0.54      0.09
  245                281.04      0.45      0.06
  247                231.08      0.37      0.04
  249                113.08      0.18      0.01
  251                 52.89      0.11      0.01
  257                 29.18      0.08      0.00
  261                 32.12      0.21      0.03
  263                 21.09      0.06      0.00
  269                 49.20      0.14      0.01
  271                 71.12      0.45      0.14
  273                -41.90      0.12      0.01
  275                -33.66      0.10      0.00
  277                  5.56      0.02      0.00
  281                -39.21      0.16      0.02
  283                -65.34      0.19      0.02
  285                 11.20      0.03      0.00
  287               -140.50      0.57      0.16
  289                347.05      1.42      0.87
  291                 69.79      0.29      0.04
  293                 85.07      0.54      0.19
  295                -54.15      0.15      0.01
  297                485.20      3.10      4.79
  299                233.11      1.49      1.23
  301                233.11      1.49      1.23
  303                252.09      1.61      1.42
  305                147.28      0.42      0.07
  307                399.37      1.13      0.46
  309                201.16      1.28      0.94
  311                -30.39      0.09      0.00
  313                447.32      1.27      0.57
  315              -1958.58      1.39      0.30
  317                117.10      0.75      0.34
  319                -18.92      0.05      0.00
  321               7603.76      3.45      1.08
  323               -158.24      0.45      0.08
  325                147.46      0.94      0.53
  329              13154.87      5.97      3.01
  330                  0.00      0.00      0.00
  333                 -0.00      0.00      0.00
  10                   0.00      0.00      0.00  Pump
  335              13154.87      0.00    -93.47  Pump
   
   
  Node Results at 0:15:00 hrs:
  --------------------------------------------------------
                     Demand      Head  Pressure  Chemical
  Node                  gpm        ft       psi      mg/L
  --------------------------------------------------------
  10                   0.00    145.79     -0.53      0.00
  15                 644.97    123.79     39.77      0.00
  20                   0.00    158.21     12.66      0.00
  35                1539.17    145.76     57.74      0.00
  40                   0.00    145.15      5.74      0.00
  50                   0.00    139.63     10.02      0.00
  60                   0.00    209.02     90.57      0.00
  601                  0.00    302.50    131.07      0.00
  61                   0.00    302.50    131.07      0.00
  101                243.14    145.79     44.97      0.00
  103                170.50    145.75     44.52      0.00
  105                173.27    147.07     51.38      0.00
  107                 69.94    147.06     54.19      0.00
  109                296.19    145.75     54.36      0.00
  111                181.68    146.27     59.04      0.00
  113                 25.61    146.28     62.52      0.00
  115                 66.69    147.11     57.68      0.00
  117                150.67    150.24     59.21      0.00
  119                225.45    157.68     67.46      0.00
  120                  0.00    155.28     67.28      0.00
  121                 53.29    161.15     70.70      0.00
  123                  0.00    165.61     66.99      0.00
  125                 58.37    160.58     64.81      0.00
  127                 22.60    158.93     44.60      0.00
  129                  0.00    158.92     46.76      0.00
  131                 54.72    158.90     66.25      0.00
  139                  7.54    153.00     52.86      0.00
  141                 12.61    148.78     62.73      0.00
  143                  7.94    137.17     61.39      0.00
  145                 35.37    150.11     64.61      0.00
  147                 10.94    151.10     57.45      0.00
  149                 34.65    151.51     58.72      0.00
  151                184.93    155.57     52.89      0.00
  153                 56.54    155.67     38.77      0.00
  157                 66.29    155.21     61.58      0.00
  159                 52.89    151.81     63.18      0.00
  161                 20.22    149.51     63.05      0.00
  163                 12.06    149.04     62.41      0.00
  164                  0.00    149.04     62.41      0.00
  166                  3.33    149.04     65.45      0.00
  167                 18.64    147.14     65.92      0.00
  169                  0.00    147.15     65.92      0.00
  171                 50.36    146.04     65.01      0.00
  173                  0.00    146.01     65.00      0.00
  177                 74.46    145.75     59.69      0.00
  179                  0.00    145.74     59.68      0.00
  181                  0.00    145.76     59.69      0.00
  183                  0.00    145.74     58.38      0.00
  184                  0.00    144.39     55.63      0.00
  185                 32.83    145.04     55.92      0.00
  187                  0.00    145.84     57.78      0.00
  189                138.14    146.15     61.59      0.00
  191                104.83    146.17     52.50      0.00
  193                 91.28    146.27     55.58      0.00
  195                  0.00    146.33     56.69      0.00
  197                 21.81    146.19     53.38      0.00
  199                152.73    140.27     61.65      0.00
  201                 57.10    139.45     60.38      0.00
  203               4777.93    139.27     59.48      0.00
  204                  0.00    145.56     53.97      0.00
  205                 83.66    140.25     51.67      0.00
  206                  0.00    139.32     59.93      0.00
  207                 88.82    139.48     56.54      0.00
  208                  0.00    139.13     53.35      0.00
  209                  1.11    138.80     61.01      0.00
  211                 11.10    138.69     57.06      0.00
  213                 17.84    138.63     57.04      0.00
  215                118.00    138.46     56.96      0.00
  217                 31.00    138.44     57.39      0.00
  219                 52.89    138.43     58.25      0.00
  225                 29.18    138.43     56.52      0.00
  229                 82.15    138.56     55.49      0.00
  231                 21.09    138.56     57.87      0.00
  237                 19.98    138.66     54.02      0.00
  239                 57.10    138.67     54.45      0.00
  241                  0.00    138.67     54.45      0.00
  243                  5.56    138.67     54.02      0.00
  247                 90.09    138.67     52.29      0.00
  249                  0.00    138.67     52.29      0.00
  251                 30.92    138.69     47.09      0.00
  253                 69.79    138.83     44.56      0.00
  255                 51.70    138.88     48.48      0.00
  257                  0.00    152.19     58.58      0.00
  259                  0.00    151.76     54.92      0.00
  261                  0.00    150.19     65.08      0.00
  263                  0.00    150.03     65.01      0.00
  265                  0.00    147.75     64.02      0.00
  267                  0.00    146.27     54.28      0.00
  269                  0.00    146.52     63.49      0.00
  271                  0.00    145.84     60.59      0.00
  273                  0.00    140.25     57.30      0.00
  275                  0.00    139.48     56.10      0.00
  River           -13153.11    220.00      0.00      0.00  Reservoir
  Lake                 0.00    167.00      0.00      0.00  Reservoir
  1                  412.96    145.15      5.74      0.00  Tank
  2                 -335.99    139.63     10.02      0.00  Tank
  3                 2212.49    158.21     12.66      0.00  Tank
   
   
  Link Results at 0:15:00 hrs:
  ----------------------------------------------
                       Flow  Velocity  Headloss
  Link                  gpm       fps   /1000ft
  ----------------------------------------------
  20               -2212.49      0.09      0.00
  40                -412.96      0.02      0.00
  50                 335.99      0.01      0.00
  60               13153.11      9.33      8.92
  101                  0.00      0.00      0.00
  103                175.73      0.28      0.02
  105               -418.87      1.19      0.51
  107                 40.67      0.12      0.01
  109                  5.23      0.01      0.00
  111               -290.96      0.83      0.26
  112                510.03      1.45      0.73
  113                -50.01      0.14      0.01
  114                129.44      0.83      0.41
  115                -29.27      0.19      0.03
  116                 53.81      0.15      0.01
  117                632.81      1.80      1.09
  119               -735.42      2.09      1.43
  120               1150.97      3.27      3.29
  121               1033.45      2.93      2.69
  122                367.93      2.35      2.87
  123               9851.59      4.47      1.74
  125              13153.11      5.97      2.97
  129               2880.29      2.04      0.61
  131               2604.97      1.85      0.51
  133              -2212.49      2.26      0.92
  135                369.87      0.26      0.01
  137                 54.72      0.09      0.00
  145                315.15      2.01      2.15
  147                307.61      1.96      2.06
  149               -652.91      4.17      8.29
  151               -644.97      4.12      8.11
  153                357.90      1.02      0.38
  155                393.27      1.12      0.45
  159               -404.21      1.15      0.47
  161               -438.86      2.80      3.97
  163               -160.42      0.46      0.09
  169                216.96      1.38      1.08
  171                463.37      1.31      0.61
  173               8011.80      3.64      1.19
  175               7945.51      3.61      1.17
  177               7892.62      3.58      1.15
  179               7624.47      3.46      1.08
  180                  3.33      0.01      0.00
  181                  3.33      0.01      0.00
  183               7407.93      3.36      1.03
  185                -18.64      0.12      0.01
  186                362.93      2.32      2.80
  187               6794.53      3.08      0.87
  189               4937.44      2.24      0.48
  191              -1806.73      1.28      0.26
  193              -1539.17      1.09      0.19
  195                415.12      1.18      0.50
  197                340.66      0.97      0.34
  199                -72.30      0.21      0.02
  201               -412.96      1.17      0.49
  202                576.31      3.68      6.58
  203                246.21      1.57      1.36
  204                576.31      1.63      0.91
  205                362.93      1.03      0.39
  207                318.51      0.90      0.30
  209                161.75      1.03      0.63
  211                594.76      1.69      0.97
  213                201.19      0.57      0.13
  215                171.20      0.49      0.10
  217               -240.42      0.68      0.18
  219               -247.93      0.70      0.19
  221                247.93      1.58      1.38
  223                 65.59      0.19      0.02
  225                 87.41      0.25      0.03
  229               4937.44      3.50      1.43
  231               4684.97      3.32      1.30
  233               4777.93      3.39      1.57
  235                 99.75      0.28      0.04
  237                474.95      1.35      0.64
  238                353.52      1.00      0.37
  239                -32.61      0.09      0.00
  240                353.52      1.00      0.37
  241                353.52      1.00      0.37
  243                352.40      0.56      0.09
  245                282.17      0.45      0.06
  247                231.08      0.37      0.04
  249                113.08      0.18      0.01
  251                 52.89      0.11      0.01
  257                 29.18      0.08      0.00
  261                 33.24      0.21      0.03
  263                 21.09      0.06      0.00
  269                 59.14      0.17      0.01
  271                 70.00      0.45      0.13
  273                -30.84      0.09      0.00
  275                -29.52      0.08      0.00
  277                  5.56      0.02      0.00
  281                -35.07      0.14      0.01
  283                -58.42      0.17      0.01
  285                  8.34      0.02      0.00
  287               -133.50      0.55      0.15
  289                335.99      1.37      0.82
  291                 69.79      0.29      0.04
  293                 81.00      0.52      0.17
  295                -50.08      0.14      0.01
  297                485.45      3.10      4.79
  299                233.23      1.49      1.23
  301                233.23      1.49      1.23
  303                252.22      1.61      1.42
  305                147.36      0.42      0.07
  307                399.58      1.13      0.46
  309                201.16      1.28      0.94
  311                -29.96      0.09      0.00
  313                447.20      1.27      0.57
  315              -1954.29      1.39      0.30
  317                117.45      0.75      0.35
  319                -17.70      0.05      0.00
  321               7609.09      3.45      1.08
  323               -150.06      0.43      0.08
  325                147.56      0.94      0.53
  329              13153.11      5.97      3.01
  330                  0.00      0.00      0.00
  333                 -0.00      0.00      0.00
  10                   0.00      0.00      0.00  Pump
  335              13153.11      0.00    -93.49  Pump
   
   
  Node Results at 0:20:00 hrs:
  --------------------------------------------------------
                     Demand      Head  Pressure  Chemical
  Node                  gpm        ft       psi      mg/L
  --------------------------------------------------------
  10                   0.00    145.82     -0.51      0.00
  15                 644.97    123.85     39.80      0.00
  20                   0.00    158.28     12.69      0.00
  35                1539.17    145.79     57.76      0.00
  40                   0.00    145.20      5.76      0.00
  50                   0.00    139.52      9.97      0.00
  60                   0.00    209.02     90.57      0.00
  601                  0.00    302.52    131.08      0.00
  61                   0.00    302.52    131.08      0.00
  101                243.14    145.82     44.99      0.00
  103                170.50    145.79     44.54      0.00
  105                173.27    147.11     51.39      0.00
  107                 69.94    147.10     54.21      0.00
  109                296.19    145.79     54.38      0.00
  111                181.68    146.31     59.06      0.00
  113                 25.61    146.32     62.53      0.00
  115                 66.69    147.15     57.69      0.00
  117                150.67    150.28     59.22      0.00
  119                225.45    157.73     67.48      0.00
  120                  0.00    155.32     67.30      0.00
  121                 53.29    161.21     70.72      0.00
  123                  0.00    165.66     67.01      0.00
  125                 58.37    160.64     64.84      0.00
  127                 22.60    159.00     44.63      0.00
  129                  0.00    158.98     46.79      0.00
  131                 54.72    158.97     66.28      0.00
  139                  7.54    153.06     52.89      0.00
  141                 12.61    148.84     62.76      0.00
  143                  7.94    137.23     61.41      0.00
  145                 35.37    150.16     64.63      0.00
  147                 10.94    151.15     57.48      0.00
  149                 34.65    151.57     58.74      0.00
  151                184.93    155.62     52.91      0.00
  153                 56.54    155.72     38.79      0.00
  157                 66.29    155.26     61.60      0.00
  159                 52.89    151.86     63.20      0.00
  161                 20.22    149.55     63.07      0.00
  163                 12.06    149.08     62.43      0.00
  164                  0.00    149.08     62.43      0.00
  166                  3.33    149.08     65.46      0.00
  167                 18.64    147.18     65.94      0.00
  169                  0.00    147.18     65.94      0.00
  171                 50.36    146.07     65.03      0.00
  173                  0.00    146.05     65.02      0.00
  177                 74.46    145.78     59.70      0.00
  179                  0.00    145.77     59.70      0.00
  181                  0.00    145.80     59.71      0.00
  183                  0.00    145.78     58.40      0.00
  184                  0.00    144.42     55.64      0.00
  185                 32.83    145.08     55.93      0.00
  187                  0.00    145.87     57.79      0.00
  189                138.14    146.19     61.61      0.00
  191                104.83    146.21     52.52      0.00
  193                 91.28    146.30     55.59      0.00
  195                  0.00    146.37     56.71      0.00
  197                 21.81    146.23     53.39      0.00
  199                152.73    140.29     61.65      0.00
  201                 57.10    139.47     60.39      0.00
  203               4777.93    139.28     59.48      0.00
  204                  0.00    145.59     53.99      0.00
  205                 83.66    140.26     51.68      0.00
  206                  0.00    139.31     59.93      0.00
  207                 88.82    139.49     56.54      0.00
  208                  0.00    139.12     53.35      0.00
  209                  1.11    138.77     61.00      0.00
  211                 11.10    138.65     57.05      0.00
  213                 17.84    138.59     57.02      0.00
  215                118.00    138.42     56.94      0.00
  217                 31.00    138.40     57.37      0.00
  219                 52.89    138.39     58.23      0.00
  225                 29.18    138.39     56.50      0.00
  229                 82.15    138.51     55.47      0.00
  231                 21.09    138.51     57.85      0.00
  237                 19.98    138.62     54.00      0.00
  239                 57.10    138.62     54.43      0.00
  241                  0.00    138.62     54.43      0.00
  243                  5.56    138.62     54.00      0.00
  247                 90.09    138.62     52.27      0.00
  249                  0.00    138.62     52.27      0.00
  251                 30.92    138.63     47.07      0.00
  253                 69.79    138.76     44.53      0.00
  255                 51.70    138.81     48.45      0.00
  257                  0.00    152.23     58.60      0.00
  259                  0.00    151.80     54.94      0.00
  261                  0.00    150.24     65.10      0.00
  263                  0.00    150.07     65.03      0.00
  265                  0.00    147.79     64.04      0.00
  267                  0.00    146.31     54.30      0.00
  269                  0.00    146.56     63.50      0.00
  271                  0.00    145.87     60.61      0.00
  273                  0.00    140.26     57.31      0.00
  275                  0.00    139.49     56.11      0.00
  River           -13151.35    220.00      0.00      0.00  Reservoir
  Lake                 0.00    167.00      0.00      0.00  Reservoir
  1                  408.26    145.20      5.76      0.00  Tank
  2                 -325.14    139.52      9.97      0.00  Tank
  3                 2204.57    158.28     12.69      0.00  Tank
   
   
  Link Results at 0:20:00 hrs:
  ----------------------------------------------
                       Flow  Velocity  Headloss
  Link                  gpm       fps   /1000ft
  ----------------------------------------------
  20               -2204.57      0.09      0.00
  40                -408.26      0.02      0.00
  50                 325.14      0.01      0.00
  60               13151.35      9.33      8.92
  101                  0.00      0.00      0.00
  103                175.93      0.28      0.02
  105               -419.06      1.19      0.51
  107                 40.80      0.12      0.01
  109                  5.43      0.01      0.00
  111               -290.76      0.82      0.26
  112                510.48      1.45      0.73
  113                -49.66      0.14      0.01
  114                129.57      0.83      0.41
  115                -29.13      0.19      0.03
  116                 54.30      0.15      0.01
  117                633.14      1.80      1.09
  119               -735.87      2.09      1.44
  120               1151.55      3.27      3.29
  121               1033.98      2.93      2.70
  122                368.13      2.35      2.87
  123               9857.30      4.47      1.74
  125              13151.35      5.97      2.97
  129               2872.62      2.04      0.61
  131               2597.20      1.84      0.51
  133              -2204.57      2.25      0.91
  135                370.02      0.26      0.01
  137                 54.72      0.09      0.00
  145                315.30      2.01      2.15
  147                307.76      1.96      2.06
  149               -652.91      4.17      8.29
  151               -644.97      4.12      8.11
  153                357.75      1.01      0.38
  155                393.12      1.12      0.45
  159               -404.06      1.15      0.47
  161               -438.71      2.80      3.97
  163               -160.52      0.46      0.09
  169                217.06      1.39      1.08
  171                463.12      1.31      0.61
  173               8017.18      3.64      1.19
  175               7950.89      3.61      1.17
  177               7898.00      3.58      1.15
  179               7629.76      3.46      1.08
  180                  3.33      0.01      0.00
  181                  3.33      0.01      0.00
  183               7413.22      3.36      1.03
  185                -18.64      0.12      0.01
  186                363.59      2.32      2.80
  187               6799.84      3.09      0.87
  189               4947.02      2.25      0.49
  191              -1802.47      1.28      0.26
  193              -1539.17      1.09      0.19
  195                410.95      1.17      0.49
  197                336.49      0.95      0.34
  199                -71.77      0.20      0.02
  201               -408.26      1.16      0.48
  202                577.60      3.69      6.61
  203                246.84      1.58      1.37
  204                577.60      1.64      0.92
  205                363.59      1.03      0.39
  207                318.60      0.90      0.30
  209                161.97      1.03      0.63
  211                594.73      1.69      0.97
  213                201.63      0.57      0.13
  215                171.62      0.49      0.10
  217               -240.57      0.68      0.18
  219               -248.01      0.70      0.19
  221                248.01      1.58      1.38
  223                 65.89      0.19      0.02
  225                 87.70      0.25      0.03
  229               4947.02      3.51      1.44
  231               4693.17      3.33      1.31
  233               4777.93      3.39      1.57
  235                101.12      0.29      0.04
  237                477.26      1.35      0.64
  238                364.37      1.03      0.39
  239                -24.06      0.07      0.00
  240                364.37      1.03      0.39
  241                364.37      1.03      0.39
  243                363.26      0.58      0.10
  245                283.40      0.45      0.06
  247                231.08      0.37      0.04
  249                113.08      0.18      0.01
  251                 52.89      0.11      0.01
  257                 29.18      0.08      0.00
  261                 34.48      0.22      0.04
  263                 21.09      0.06      0.00
  269                 68.76      0.20      0.02
  271                 68.76      0.44      0.13
  273                -19.98      0.06      0.00
  275                -25.45      0.07      0.00
  277                  5.56      0.02      0.00
  281                -31.01      0.13      0.01
  283                -51.63      0.15      0.01
  285                  5.55      0.02      0.00
  287               -126.64      0.52      0.13
  289                325.14      1.33      0.77
  291                 69.79      0.29      0.04
  293                 77.01      0.49      0.16
  295                -46.09      0.13      0.01
  297                485.70      3.10      4.80
  299                233.35      1.49      1.23
  301                233.35      1.49      1.23
  303                252.35      1.61      1.43
  305                147.44      0.42      0.07
  307                399.79      1.13      0.46
  309                201.16      1.28      0.94
  311                -29.54      0.08      0.00
  313                447.09      1.27      0.57
  315              -1950.12      1.38      0.30
  317                117.80      0.75      0.35
  319                -16.68      0.05      0.00
  321               7614.38      3.46      1.08
  323               -141.86      0.40      0.07
  325                147.65      0.94      0.53
  329              13151.35      5.97      3.01
  330                  0.00      0.00      0.00
  333                 -0.00      0.00      0.00
  10                   0.00      0.00      0.00  Pump
  335              13151.35      0.00    -93.50  Pump
   
   
  Node Results at 0:25:00 hrs:
  --------------------------------------------------------
                     Demand      Head  Pressure  Chemical
  Node                  gpm        ft       psi      mg/L
  --------------------------------------------------------
  10                   0.00    145.86     -0.49      0.00
  15                 644.97    123.90     39.82      0.00
  20                   0.00    158.35     12.72      0.00
  35                1539.17    145.83     57.77      0.00
  40                   0.00    145.25      5.78      0.00
  50                   0.00    139.41      9.93      0.00
  60                   0.00    209.02     90.57      0.00
  601                  0.00    302.54    131.09      0.00
  61                   0.00    302.54    131.09      0.00
  101                243.14    145.86     45.00      0.00
  103                170.50    145.83     44.56      0.00
  105                173.27    147.15     51.41      0.00
  107                 69.94    147.14     54.22      0.00
  109                296.19    145.83     54.39      0.00
  111                181.68    146.34     59.08      0.00
  113                 25.61    146.36     62.55      0.00
  115                 66.69    147.19     57.71      0.00
  117                150.67    150.32     59.24      0.00
  119                225.45    157.78     67.50      0.00
  120                  0.00    155.37     67.32      0.00
  121                 53.29    161.26     70.74      0.00
  123                  0.00    165.71     67.04      0.00
  125                 58.37    160.70     64.86      0.00
  127                 22.60    159.06     44.66      0.00
  129                  0.00    159.05     46.82      0.00
  131                 54.72    159.03     66.31      0.00
  139                  7.54    153.12     52.91      0.00
  141                 12.61    148.89     62.78      0.00
  143                  7.94    137.28     61.43      0.00
  145                 35.37    150.22     64.66      0.00
  147                 10.94    151.21     57.50      0.00
  149                 34.65    151.62     58.77      0.00
  151                184.93    155.67     52.94      0.00
  153                 56.54    155.77     38.81      0.00
  157                 66.29    155.30     61.62      0.00
  159                 52.89    151.90     63.22      0.00
  161                 20.22    149.59     63.08      0.00
  163                 12.06    149.12     62.45      0.00
  164                  0.00    149.12     62.45      0.00
  166                  3.33    149.12     65.48      0.00
  167                 18.64    147.22     65.96      0.00
  169                  0.00    147.22     65.96      0.00
  171                 50.36    146.11     65.04      0.00
  173                  0.00    146.08     65.03      0.00
  177                 74.46    145.82     59.72      0.00
  179                  0.00    145.81     59.71      0.00
  181                  0.00    145.83     59.72      0.00
  183                  0.00    145.81     58.41      0.00
  184                  0.00    144.45     55.66      0.00
  185                 32.83    145.11     55.94      0.00
  187                  0.00    145.91     57.81      0.00
  189                138.14    146.22     61.63      0.00
  191                104.83    146.25     52.54      0.00
  193                 91.28    146.34     55.61      0.00
  195                  0.00    146.41     56.72      0.00
  197                 21.81    146.26     53.41      0.00
  199                152.73    140.30     61.66      0.00
  201                 57.10    139.48     60.39      0.00
  203               4777.93    139.29     59.49      0.00
  204                  0.00    145.63     54.00      0.00
  205                 83.66    140.28     51.68      0.00
  206                  0.00    139.31     59.93      0.00
  207                 88.82    139.50     56.54      0.00
  208                  0.00    139.10     53.34      0.00
  209                  1.11    138.74     60.98      0.00
  211                 11.10    138.61     57.03      0.00
  213                 17.84    138.55     57.00      0.00
  215                118.00    138.38     56.93      0.00
[...]
  219                 67.76    136.06     57.22      0.00
  225                 37.39    136.07     55.49      0.00
  229                105.26    136.29     54.51      0.00
  231                 27.03    136.29     56.89      0.00
  237                 25.60    136.48     53.07      0.00
  239                 73.16    136.50     53.51      0.00
  241                  0.00    136.50     53.51      0.00
  243                  7.12    136.50     53.08      0.00
  247                115.42    136.53     51.36      0.00
  249                  0.00    136.53     51.36      0.00
  251                 39.62    136.58     46.18      0.00
  253                 89.41    136.99     43.76      0.00
  255                 66.24    137.07     47.69      0.00
  257                  0.00    150.06     57.65      0.00
  259                  0.00    149.59     53.98      0.00
  261                  0.00    147.87     64.07      0.00
  263                  0.00    147.69     63.99      0.00
  265                  0.00    146.42     63.44      0.00
  267                  0.00    144.65     53.58      0.00
  269                  0.00    145.14     62.89      0.00
  271                  0.00    144.69     60.09      0.00
  273                  0.00    138.18     56.41      0.00
  275                  0.00    137.32     55.17      0.00
  River           -13242.20    220.00      0.00      0.00  Reservoir
  Lake                 0.00    167.00      0.00      0.00  Reservoir
  1                 -870.44    147.03      6.56      0.00  Tank
  2                 -516.50    138.75      9.64      0.00  Tank
  3                  443.57    159.26     13.11      0.00  Tank
   
   
  Link Results at 23:55:00 hrs:
  ----------------------------------------------
                       Flow  Velocity  Headloss
  Link                  gpm       fps   /1000ft
  ----------------------------------------------
  20                -443.57      0.02      0.00
  40                 870.44      0.04      0.00
  50                 516.50      0.02      0.00
  60               13242.20      9.39      9.03
  101                  0.00      0.00      0.00
  103                138.45      0.22      0.02
  105               -449.97      1.28      0.58
  107                 -1.54      0.00      0.00
  109                -80.00      0.13      0.01
  111               -459.49      1.30      0.60
  112                456.04      1.29      0.59
  113               -175.24      0.50      0.10
  114                100.41      0.64      0.26
  115                -91.15      0.58      0.22
  116               -107.64      0.31      0.04
  117                670.44      1.90      1.21
  119               -733.04      2.08      1.43
  120               1220.23      3.46      3.66
  121               1086.10      3.08      2.95
  122                376.30      2.40      2.99
  123               9814.20      4.45      1.73
  125              11342.47      5.15      2.26
  129               1083.70      0.77      0.10
  131                798.82      0.57      0.06
  133               -443.57      0.45      0.05
  135                326.29      0.23      0.01
  137                 70.11      0.11      0.00
  145                256.18      1.64      1.47
  147                246.52      1.57      1.37
  149               -391.05      2.50      3.21
  151               -380.88      2.43      3.06
  153                160.68      0.46      0.09
  155                205.99      0.58      0.14
  159               -220.01      0.62      0.15
  161               -264.41      1.69      1.55
  163               -137.65      0.39      0.06
  169                210.09      1.34      1.02
  171                363.71      1.03      0.39
  173               7941.41      3.60      1.17
  175               7856.48      3.57      1.14
  177               7788.71      3.54      1.13
  179               7494.54      3.40      1.05
  180                  4.26      0.01      0.00
  181                  4.26      0.01      0.00
  183               7253.40      3.29      0.99
  185                -23.88      0.15      0.02
  186                322.53      2.06      2.25
  187               6599.30      3.00      0.83
  189               5300.75      2.41      0.55
  191              -1234.03      0.88      0.13
  193              -1853.96      1.31      0.27
  195               -501.64      1.42      0.71
  197               -597.04      1.69      0.98
  199                273.40      0.78      0.23
  201                870.44      2.47      1.96
  202                608.12      3.88      7.27
  203                327.65      2.09      2.31
  204                608.12      1.73      1.01
  205                322.53      0.91      0.31
  207                 54.25      0.15      0.01
  209                220.99      1.41      1.12
  211                630.22      1.79      1.08
  213                101.54      0.29      0.04
  215                -59.70      0.17      0.01
  217               -324.80      0.92      0.32
  219               -268.26      0.76      0.22
  221                268.26      1.71      1.60
  223                -88.94      0.25      0.03
  225                -61.00      0.17      0.01
  229               5300.75      3.76      1.64
  231               4978.54      3.53      1.46
  233               5052.10      3.58      1.74
  235                126.52      0.36      0.06
  237                503.23      1.43      0.71
  238                366.94      1.04      0.40
  239                -22.49      0.06      0.00
  240                366.94      1.04      0.40
  241                366.94      1.04      0.40
  243                365.51      0.58      0.10
  245                356.44      0.57      0.09
  247                296.07      0.47      0.07
  249                144.88      0.23      0.02
  251                 67.76      0.14      0.01
  257                 37.39      0.11      0.01
  261                 37.51      0.24      0.04
  263                 27.03      0.08      0.00
  269                 -5.15      0.01      0.00
  271                 94.77      0.60      0.23
  273               -125.52      0.36      0.05
  275                -70.03      0.20      0.02
  277                  7.12      0.02      0.00
  281                -77.14      0.32      0.05
  283               -128.65      0.36      0.06
  285                 32.90      0.09      0.00
  287               -225.47      0.92      0.39
  289                516.50      2.11      1.81
  291                 89.41      0.37      0.07
  293                135.37      0.86      0.45
  295                -95.75      0.27      0.03
  297                510.43      3.26      5.26
  299                245.35      1.57      1.35
  301                245.35      1.57      1.35
  303                265.08      1.69      1.56
  305                160.01      0.45      0.09
  307                425.09      1.21      0.52
  309                221.43      1.41      1.12
  311               -281.12      0.80      0.24
  313                511.93      1.45      0.73
  315              -1352.32      0.96      0.15
  317                124.22      0.79      0.38
  319                  2.30      0.01      0.00
  321               7474.83      3.39      1.04
  323               -146.72      0.42      0.07
  325                118.28      0.75      0.35
  329              13242.20      6.01      3.05
  330                  0.00      0.00      0.00
  333                 -0.00      0.00      0.00
  10                   0.00      0.00      0.00  Pump
  335              13242.20      0.00    -92.70  Pump
   
   
  Node Results at 24:00:00 hrs:
  --------------------------------------------------------
                     Demand      Head  Pressure  Chemical
  Node                  gpm        ft       psi      mg/L
  --------------------------------------------------------
  10                   0.00    147.04      0.02      0.00
  15                 644.97    124.90     40.25      0.00
  20                   0.00    159.28     13.12      0.00
  35                1539.17    147.07     58.31      0.00
  40                   0.00    146.93      6.51      0.00
  50                   0.00    138.57      9.56      0.00
  60                   0.00    209.07     90.59      0.00
  601                  0.00    302.88    131.24      0.00
  61                   0.00    302.88    131.24      0.00
  101                243.14    147.04     45.51      0.00
  103                170.50    147.00     45.06      0.00
  105                173.27    148.31     51.91      0.00
  107                 69.94    148.30     54.73      0.00
  109                296.19    147.00     54.90      0.00
  111                181.68    147.52     59.59      0.00
  113                 25.61    147.54     63.06      0.00
  115                 66.69    148.36     58.22      0.00
  117                150.67    151.45     59.73      0.00
  119                225.45    158.82     67.95      0.00
  120                  0.00    156.44     67.78      0.00
  121                 53.29    162.26     71.17      0.00
  123                  0.00    166.69     67.46      0.00
  125                 58.37    161.68     65.29      0.00
  127                 22.60    160.01     45.07      0.00
  129                  0.00    159.99     47.23      0.00
  131                 54.72    159.98     66.72      0.00
  139                  7.54    154.10     53.34      0.00
  141                 12.61    149.89     63.21      0.00
  143                  7.94    138.28     61.87      0.00
  145                 35.37    151.22     65.09      0.00
  147                 10.94    152.21     57.94      0.00
  149                 34.65    152.63     59.20      0.00
  151                184.93    156.69     53.38      0.00
  153                 56.54    156.79     39.25      0.00
  157                 66.29    156.38     62.08      0.00
  159                 52.89    153.02     63.70      0.00
  161                 20.22    150.74     63.58      0.00
  163                 12.06    150.28     62.95      0.00
  164                  0.00    150.28     62.95      0.00
  166                  3.33    150.28     65.98      0.00
  167                 18.64    148.40     66.47      0.00
  169                  0.00    148.40     66.47      0.00
  171                 50.36    147.30     65.56      0.00
  173                  0.00    147.27     65.55      0.00
  177                 74.46    147.07     60.26      0.00
  179                  0.00    147.07     60.26      0.00
  181                  0.00    147.07     60.26      0.00
  183                  0.00    147.07     58.96      0.00
  184                  0.00    145.59     56.15      0.00
  185                 32.83    146.29     56.45      0.00
  187                  0.00    147.10     58.32      0.00
  189                138.14    147.43     62.15      0.00
  191                104.83    147.43     53.05      0.00
  193                 91.28    147.53     56.12      0.00
  195                  0.00    147.60     57.24      0.00
  197                 21.81    147.45     53.92      0.00
  199                152.73    141.21     62.05      0.00
  201                 57.10    140.35     60.77      0.00
  203               4777.93    140.16     59.87      0.00
  204                  0.00    146.81     54.52      0.00
  205                 83.66    141.18     52.07      0.00
  206                  0.00    139.95     60.21      0.00
  207                 88.82    140.30     56.89      0.00
  208                  0.00    139.56     53.54      0.00
  209                  1.11    138.89     61.05      0.00
  211                 11.10    138.66     57.05      0.00
  213                 17.84    138.59     57.02      0.00
  215                118.00    138.41     56.94      0.00
  217                 31.00    138.39     57.37      0.00
  219                 52.89    138.38     58.23      0.00
  225                 29.18    138.39     56.50      0.00
  229                 82.15    138.35     55.40      0.00
  231                 21.09    138.35     57.78      0.00
  237                 19.98    138.39     53.90      0.00
  239                 57.10    138.36     54.32      0.00
  241                  0.00    138.36     54.32      0.00
  243                  5.56    138.36     53.88      0.00
  247                 90.09    138.36     52.15      0.00
  249                  0.00    138.36     52.15      0.00
  251                 30.92    138.35     46.95      0.00
  253                 69.79    138.32     44.33      0.00
  255                 51.70    138.37     48.26      0.00
  257                  0.00    153.38     59.09      0.00
  259                  0.00    152.95     55.44      0.00
  261                  0.00    151.40     65.60      0.00
  263                  0.00    151.24     65.53      0.00
  265                  0.00    149.00     64.56      0.00
  267                  0.00    147.54     54.83      0.00
  269                  0.00    147.79     64.04      0.00
  271                  0.00    147.14     61.16      0.00
  273                  0.00    141.18     57.70      0.00
  275                  0.00    140.35     56.48      0.00
  River           -13116.61    220.00      0.00      0.00  Reservoir
  Lake                 0.00    167.00      0.00      0.00  Reservoir
  1                  187.92    146.93      6.51      0.00  Tank
  2                 -166.09    138.57      9.56      0.00  Tank
  3                 2231.13    159.28     13.12      0.00  Tank
   
   
  Link Results at 24:00:00 hrs:
  ----------------------------------------------
                       Flow  Velocity  Headloss
  Link                  gpm       fps   /1000ft
  ----------------------------------------------
  20               -2231.13      0.09      0.00
  40                -187.92      0.01      0.00
  50                 166.09      0.01      0.00
  60               13116.61      9.30      8.88
  101                  0.00      0.00      0.00
  103                173.75      0.28      0.02
  105               -416.88      1.18      0.50
  107                 39.36      0.11      0.01
  109                  3.25      0.01      0.00
  111               -292.94      0.83      0.26
  112                505.58      1.43      0.72
  113                -54.27      0.15      0.01
  114                128.06      0.82      0.41
  115                -30.58      0.20      0.03
  116                 48.18      0.14      0.01
  117                629.51      1.79      1.08
  119               -730.90      2.07      1.42
  120               1145.07      3.25      3.26
  121               1028.13      2.92      2.67
  122                366.01      2.34      2.84
  123               9799.62      4.45      1.72
  125              13116.61      5.95      2.95
  129               2897.68      2.06      0.62
  131               2623.05      1.86      0.52
  133              -2231.13      2.28      0.93
  135                369.31      0.26      0.01
  137                 54.72      0.09      0.00
  145                314.59      2.01      2.15
  147                307.05      1.96      2.05
  149               -652.91      4.17      8.29
  151               -644.97      4.12      8.11
  153                358.46      1.02      0.38
  155                393.83      1.12      0.45
  159               -404.77      1.15      0.47
  161               -439.42      2.80      3.98
  163               -159.73      0.45      0.08
  169                216.27      1.38      1.07
  171                464.63      1.32      0.61
  173               7964.48      3.61      1.17
  175               7898.19      3.58      1.15
  177               7845.30      3.56      1.14
  179               7578.65      3.44      1.07
  180                  3.33      0.01      0.00
  181                  3.33      0.01      0.00
  183               7363.53      3.34      1.01
  185                -18.64      0.12      0.01
  186                367.52      2.35      2.86
  187               6759.17      3.07      0.87
  189               5087.00      2.31      0.51
  191              -1621.82      1.15      0.21
  193              -1539.17      1.09      0.19
  195                226.79      0.64      0.16
  197                152.33      0.43      0.08
  199                -35.58      0.10      0.01
  201               -187.92      0.53      0.11
  202                596.66      3.81      7.02
  203                261.97      1.67      1.53
  204                596.66      1.69      0.97
  205                367.52      1.04      0.40
  207                297.55      0.84      0.27
  209                166.48      1.06      0.66
  211                585.72      1.66      0.94
  213                201.04      0.57      0.13
  215                160.59      0.46      0.09
  217               -242.47      0.69      0.18
  219               -246.43      0.70      0.19
  221                246.43      1.57      1.36
  223                 63.41      0.18      0.02
  225                 85.22      0.24      0.03
  229               5087.00      3.61      1.52
  231               4814.32      3.41      1.37
  233               4777.93      3.39      1.57
  235                119.95      0.34      0.05
  237                511.12      1.45      0.73
  238                523.42      1.48      0.76
  239                101.12      0.29      0.04
  240                523.42      1.48      0.76
  241                523.42      1.48      0.76
  243                522.31      0.83      0.19
  245                311.22      0.50      0.07
  247                231.08      0.37      0.04
  249                113.08      0.18      0.01
  251                 52.89      0.11      0.01
  257                 29.18      0.08      0.00
  261                 62.30      0.40      0.11
  263                 21.09      0.06      0.00
  269                199.99      0.57      0.13
  271                 40.94      0.26      0.05
  273                139.06      0.39      0.07
  275                 34.13      0.10      0.00
  277                  5.56      0.02      0.00
  281                 28.58      0.12      0.01
  283                 47.83      0.14      0.01
  285                -34.74      0.10      0.01
  287                -26.76      0.11      0.01
  289                166.09      0.68      0.22
  291                 69.79      0.29      0.04
  293                 17.84      0.11      0.01
  295                 13.08      0.04      0.00
  297                482.95      3.08      4.74
  299                232.03      1.48      1.22
  301                232.03      1.48      1.22
  303                250.92      1.60      1.41
  305                146.56      0.42      0.07
  307                397.48      1.13      0.46
  309                199.73      1.27      0.92
  311                -39.14      0.11      0.01
  313                441.58      1.25      0.56
  315              -1765.96      1.25      0.25
  317                121.82      0.78      0.37
  319                 -1.88      0.01      0.00
  321               7563.26      3.43      1.07
  323                -20.71      0.06      0.00
  325                144.15      0.92      0.51
  329              13116.61      5.95      2.99
  330                  0.00      0.00      0.00
  333                 -0.00      0.00      0.00
  10                   0.00      0.00      0.00  Pump
  335              13116.61      0.00    -93.81  Pump
   
  Analysis ended Wed May 06 17:17:54 2020
