  Page 1                                    Wed May 06 17:17:58 2020

  ******************************************************************
  *                           E P A N E T                          *
  *                   Hydraulic and Water Quality                  *
  *                   Analysis for Pipe Networks                   *
  *                         Version 2.00.12                        *
  ******************************************************************
  
  Analysis begun Wed May 06 17:17:58 2020

   
  Hydraulic Status:
  -----------------------------------------------------------------------
     0:00:00: Balanced after 5 trials
     0:00:00: Reservoir River is emptying
     0:00:00: Reservoir Lake is closed
     0:00:00: Tank 1 is filling at 13.10 ft
     0:00:00: Tank 2 is emptying at 23.50 ft
     0:00:00: Tank 3 is filling at 29.00 ft
   
     0:05:00: Balanced after 2 trials
   
     0:10:00: Balanced after 2 trials
   
     0:15:00: Balanced after 2 trials
   
     0:20:00: Balanced after 2 trials
   
     0:25:00: Balanced after 2 trials
   
     0:30:00: Balanced after 2 trials
   
     0:35:00: Balanced after 2 trials
   
     0:40:00: Balanced after 2 trials
   
     0:45:00: Balanced after 2 trials
   
     0:50:00: Balanced after 2 trials
   
     0:55:00: Balanced after 2 trials
   
     1:00:00: Pump 10 changed by timer control
     1:00:00: Balanced after 7 trials
     1:00:00: Reservoir Lake is emptying
     1:00:00: Pump 10 changed from closed to open
   
     1:05:00: Balanced after 1 trials
   
     1:10:00: Balanced after 1 trials
   
     1:15:00: Balanced after 1 trials
   
     1:20:00: Balanced after 1 trials
   
     1:25:00: Balanced after 1 trials
   
     1:30:00: Balanced after 1 trials
   
     1:35:00: Balanced after 1 trials
   
     1:40:00: Balanced after 1 trials
     1:40:00: Tank 2 is closed at 22.75 ft
   
     1:45:00: Balanced after 1 trials
     1:45:00: Tank 2 is filling at 22.75 ft
   
     1:50:00: Balanced after 1 trials
   
     1:55:00: Balanced after 1 trials
   
     2:00:00: Balanced after 2 trials
   
     2:05:00: Balanced after 1 trials
   
     2:10:00: Balanced after 1 trials
   
     2:15:00: Balanced after 1 trials
   
     2:20:00: Balanced after 1 trials
   
     2:25:00: Balanced after 1 trials
   
     2:30:00: Balanced after 1 trials
   
     2:35:00: Balanced after 1 trials
   
     2:40:00: Balanced after 1 trials
   
     2:45:00: Balanced after 1 trials
   
     2:50:00: Balanced after 1 trials
   
     2:55:00: Balanced after 1 trials
   
     3:00:00: Balanced after 3 trials
   
     3:05:00: Balanced after 1 trials
   
     3:10:00: Balanced after 1 trials
   
     3:15:00: Balanced after 1 trials
   
     3:20:00: Balanced after 1 trials
   
     3:25:00: Balanced after 1 trials
   
     3:30:00: Balanced after 1 trials
   
     3:35:00: Balanced after 1 trials
   
     3:40:00: Balanced after 1 trials
   
     3:45:00: Balanced after 1 trials
   
     3:50:00: Balanced after 1 trials
   
     3:51:19: Pump 335 changed by Tank 1 control
     3:51:19: Pipe 330 changed by Tank 1 control
     3:51:19: Balanced after 4 trials
     3:51:19: Tank 3 is emptying at 33.89 ft
     3:51:19: Pipe 330 changed from closed to open
     3:51:19: Pump 335 changed from open to closed
   
     3:55:00: Balanced after 1 trials
   
     4:00:00: Balanced after 3 trials
     4:00:00: Tank 3 is filling at 33.89 ft
   
     4:05:00: Balanced after 2 trials
   
     4:10:00: Balanced after 2 trials
   
     4:15:00: Balanced after 1 trials
   
     4:20:00: Balanced after 1 trials
   
     4:25:00: Balanced after 1 trials
   
     4:30:00: Balanced after 1 trials
   
     4:35:00: Balanced after 1 trials
   
     4:40:00: Balanced after 1 trials
   
     4:45:00: Balanced after 1 trials
   
     4:50:00: Balanced after 1 trials
   
     4:55:00: Balanced after 1 trials
   
     5:00:00: Balanced after 3 trials
     5:00:00: Tank 3 is emptying at 34.07 ft
   
     5:05:00: Balanced after 2 trials
   
     5:10:00: Balanced after 2 trials
   
     5:15:00: Balanced after 2 trials
   
     5:20:00: Balanced after 2 trials
   
     5:25:00: Balanced after 2 trials
   
     5:30:00: Balanced after 2 trials
   
     5:35:00: Balanced after 2 trials
   
     5:40:00: Balanced after 2 trials
   
     5:45:00: Balanced after 2 trials
   
     5:50:00: Balanced after 2 trials
   
     5:55:00: Balanced after 2 trials
   
     6:00:00: Balanced after 3 trials
     6:00:00: Tank 3 is filling at 33.99 ft
   
     6:05:00: Balanced after 1 trials
   
     6:10:00: Balanced after 1 trials
   
     6:15:00: Balanced after 1 trials
   
     6:20:00: Balanced after 1 trials
   
     6:25:00: Balanced after 1 trials
   
     6:30:00: Balanced after 1 trials
   
     6:35:00: Balanced after 1 trials
   
     6:40:00: Balanced after 1 trials
   
     6:45:00: Balanced after 1 trials
   
     6:50:00: Balanced after 1 trials
   
     6:55:00: Balanced after 1 trials
   
     7:00:00: Balanced after 4 trials
     7:00:00: Tank 1 is emptying at 21.19 ft
     7:00:00: Tank 2 is emptying at 26.45 ft
   
     7:05:00: Balanced after 2 trials
   
     7:10:00: Balanced after 2 trials
   
     7:15:00: Balanced after 2 trials
   
     7:20:00: Balanced after 2 trials
   
     7:25:00: Balanced after 2 trials
   
     7:30:00: Balanced after 2 trials
   
     7:35:00: Balanced after 2 trials
   
     7:40:00: Balanced after 2 trials
   
     7:45:00: Balanced after 2 trials
   
     7:50:00: Balanced after 2 trials
   
     7:55:00: Balanced after 2 trials
   
     8:00:00: Balanced after 4 trials
     8:00:00: Tank 1 is filling at 20.78 ft
     8:00:00: Tank 2 is filling at 26.14 ft
   
     8:05:00: Balanced after 1 trials
   
     8:10:00: Balanced after 1 trials
   
     8:15:00: Balanced after 1 trials
   
     8:20:00: Balanced after 1 trials
   
     8:25:00: Balanced after 1 trials
   
     8:30:00: Balanced after 1 trials
   
     8:35:00: Balanced after 1 trials
   
     8:40:00: Balanced after 1 trials
   
     8:45:00: Balanced after 1 trials
   
     8:50:00: Balanced after 1 trials
   
     8:55:00: Balanced after 1 trials
   
     9:00:00: Balanced after 4 trials
     9:00:00: Tank 3 is emptying at 34.99 ft
   
     9:05:00: Balanced after 2 trials
   
     9:10:00: Balanced after 2 trials
   
     9:15:00: Balanced after 2 trials
   
     9:20:00: Balanced after 2 trials
   
     9:25:00: Balanced after 2 trials
   
     9:30:00: Balanced after 2 trials
   
     9:35:00: Balanced after 2 trials
   
     9:40:00: Balanced after 2 trials
   
     9:45:00: Balanced after 2 trials
   
     9:50:00: Balanced after 2 trials
   
     9:55:00: Balanced after 2 trials
   
    10:00:00: Balanced after 3 trials
   
    10:05:00: Balanced after 2 trials
   
    10:10:00: Balanced after 2 trials
   
    10:15:00: Balanced after 2 trials
   
    10:20:00: Balanced after 2 trials
   
    10:25:00: Balanced after 2 trials
   
    10:30:00: Balanced after 2 trials
   
    10:35:00: Balanced after 2 trials
   
    10:40:00: Balanced after 2 trials
   
    10:45:00: Balanced after 2 trials
   
    10:50:00: Balanced after 2 trials
   
    10:55:00: Balanced after 2 trials
   
    11:00:00: Balanced after 3 trials
    11:00:00: Tank 1 is emptying at 22.89 ft
    11:00:00: Tank 2 is emptying at 28.55 ft
   
    11:05:00: Balanced after 1 trials
   
    11:10:00: Balanced after 1 trials
   
    11:15:00: Balanced after 1 trials
   
    11:20:00: Balanced after 1 trials
   
    11:25:00: Balanced after 1 trials
   
    11:30:00: Balanced after 1 trials
   
    11:35:00: Balanced after 1 trials
   
    11:40:00: Balanced after 1 trials
   
    11:45:00: Balanced after 1 trials
   
    11:50:00: Balanced after 1 trials
   
    11:55:00: Balanced after 1 trials
   
    12:00:00: Balanced after 3 trials
   
    12:05:00: Balanced after 1 trials
   
    12:10:00: Balanced after 1 trials
   
    12:15:00: Balanced after 1 trials
   
    12:20:00: Balanced after 1 trials
   
    12:25:00: Balanced after 1 trials
   
    12:30:00: Balanced after 1 trials
   
    12:35:00: Balanced after 1 trials
   
    12:40:00: Balanced after 1 trials
   
    12:45:00: Balanced after 1 trials
   
    12:50:00: Balanced after 1 trials
   
    12:55:00: Balanced after 1 trials
   
    13:00:00: Balanced after 3 trials
   
    13:05:00: Balanced after 1 trials
   
    13:10:00: Balanced after 1 trials
   
    13:15:00: Balanced after 1 trials
   
    13:20:00: Balanced after 1 trials
   
    13:25:00: Balanced after 1 trials
   
    13:30:00: Balanced after 1 trials
   
    13:35:00: Balanced after 1 trials
   
    13:40:00: Balanced after 1 trials
   
    13:45:00: Balanced after 1 trials
   
    13:50:00: Balanced after 1 trials
   
    13:55:00: Balanced after 1 trials
   
    14:00:00: Balanced after 4 trials
    14:00:00: Tank 1 is filling at 21.24 ft
    14:00:00: Tank 2 is filling at 27.08 ft
    14:00:00: Tank 3 is filling at 33.51 ft
   
    14:05:00: Balanced after 2 trials
   
    14:10:00: Balanced after 2 trials
   
    14:15:00: Balanced after 2 trials
   
    14:20:00: Balanced after 2 trials
   
    14:25:00: Balanced after 2 trials
   
    14:30:00: Balanced after 2 trials
   
    14:35:00: Balanced after 2 trials
   
    14:40:00: Balanced after 2 trials
   
    14:45:00: Balanced after 2 trials
   
    14:50:00: Balanced after 2 trials
   
    14:55:00: Balanced after 2 trials
   
    15:00:00: Pump 10 changed by timer control
    15:00:00: Balanced after 5 trials
    15:00:00: Reservoir Lake is closed
    15:00:00: Tank 1 is emptying at 22.00 ft
    15:00:00: Tank 3 is emptying at 33.59 ft
    15:00:00: Pump 10 changed from open to closed
   
    15:05:00: Balanced after 2 trials
   
    15:10:00: Balanced after 2 trials
   
    15:15:00: Balanced after 2 trials
   
    15:20:00: Balanced after 2 trials
   
    15:25:00: Balanced after 2 trials
   
    15:30:00: Balanced after 2 trials
   
    15:35:00: Balanced after 2 trials
   
    15:40:00: Balanced after 2 trials
   
    15:45:00: Balanced after 2 trials
   
    15:50:00: Balanced after 2 trials
   
    15:55:00: Balanced after 2 trials
   
    16:00:00: Balanced after 4 trials
    16:00:00: Tank 2 is emptying at 28.66 ft
   
    16:05:00: Balanced after 2 trials
   
    16:10:00: Balanced after 2 trials
   
    16:15:00: Balanced after 2 trials
   
    16:20:00: Balanced after 2 trials
   
    16:25:00: Balanced after 2 trials
   
    16:30:00: Balanced after 2 trials
   
    16:35:00: Balanced after 2 trials
   
    16:40:00: Balanced after 2 trials
   
    16:45:00: Balanced after 2 trials
   
    16:50:00: Balanced after 2 trials
   
    16:55:00: Balanced after 2 trials
   
    17:00:00: Balanced after 3 trials
   
    17:05:00: Balanced after 2 trials
   
    17:10:00: Balanced after 2 trials
   
    17:15:00: Balanced after 2 trials
   
    17:20:00: Balanced after 2 trials
   
    17:25:00: Balanced after 1 trials
   
    17:30:00: Balanced after 1 trials
   
    17:35:00: Balanced after 1 trials
   
    17:40:00: Balanced after 1 trials
   
    17:45:00: Balanced after 1 trials
   
    17:50:00: Balanced after 1 trials
   
    17:55:00: Balanced after 1 trials
   
    18:00:00: Balanced after 3 trials
    18:00:00: Tank 2 is filling at 27.06 ft
   
    18:05:00: Balanced after 2 trials
   
    18:10:00: Balanced after 2 trials
   
    18:15:00: Balanced after 2 trials
   
    18:20:00: Balanced after 2 trials
   
    18:25:00: Balanced after 2 trials
   
    18:30:00: Balanced after 2 trials
   
    18:35:00: Balanced after 2 trials
   
    18:40:00: Balanced after 2 trials
   
    18:45:00: Balanced after 2 trials
   
    18:50:00: Balanced after 2 trials
   
    18:55:00: Balanced after 2 trials
   
    19:00:00: Balanced after 3 trials
    19:00:00: Tank 2 is emptying at 27.33 ft
   
    19:05:00: Balanced after 1 trials
   
    19:10:00: Balanced after 1 trials
   
    19:15:00: Balanced after 1 trials
   
    19:20:00: Balanced after 1 trials
   
    19:25:00: Balanced after 1 trials
   
    19:30:00: Balanced after 1 trials
   
    19:35:00: Balanced after 1 trials
   
    19:40:00: Balanced after 1 trials
   
    19:45:00: Balanced after 1 trials
   
    19:50:00: Balanced after 1 trials
   
    19:55:00: Balanced after 1 trials
   
    20:00:00: Balanced after 3 trials
   
    20:05:00: Balanced after 1 trials
   
    20:10:00: Balanced after 1 trials
   
    20:15:00: Balanced after 1 trials
   
    20:20:00: Balanced after 1 trials
   
    20:25:00: Balanced after 1 trials
   
    20:30:00: Balanced after 1 trials
   
    20:35:00: Balanced after 1 trials
   
    20:40:00: Balanced after 1 trials
   
    20:45:00: Balanced after 1 trials
   
    20:50:00: Balanced after 1 trials
   
    20:55:00: Balanced after 1 trials
   
    21:00:00: Balanced after 3 trials
   
    21:05:00: Balanced after 2 trials
   
    21:10:00: Balanced after 2 trials
   
    21:15:00: Balanced after 2 trials
   
    21:20:00: Balanced after 2 trials
   
    21:22:12: Pump 335 changed by Tank 1 control
    21:22:12: Pipe 330 changed by Tank 1 control
    21:22:12: Balanced after 5 trials
    21:22:12: Tank 3 is filling at 29.70 ft
    21:22:12: Pipe 330 changed from open to closed
    21:22:12: Pump 335 changed from closed to open
   
    21:25:00: Balanced after 2 trials
   
    21:30:00: Balanced after 2 trials
   
    21:35:00: Balanced after 2 trials
   
    21:40:00: Balanced after 2 trials
   
    21:45:00: Balanced after 2 trials
   
    21:50:00: Balanced after 2 trials
   
    21:55:00: Balanced after 2 trials
   
    22:00:00: Balanced after 3 trials
   
    22:05:00: Balanced after 2 trials
   
    22:10:00: Balanced after 2 trials
   
    22:15:00: Balanced after 2 trials
   
    22:20:00: Balanced after 2 trials
   
    22:25:00: Balanced after 2 trials
   
    22:30:00: Balanced after 2 trials
   
    22:35:00: Balanced after 2 trials
   
    22:40:00: Balanced after 2 trials
   
    22:45:00: Balanced after 2 trials
   
    22:50:00: Balanced after 2 trials
   
    22:55:00: Balanced after 2 trials
   
    23:00:00: Balanced after 3 trials
   
    23:05:00: Balanced after 2 trials
   
    23:10:00: Balanced after 2 trials
   
    23:15:00: Balanced after 2 trials
   
    23:20:00: Balanced after 2 trials
   
    23:25:00: Balanced after 2 trials
   
    23:30:00: Balanced after 2 trials
   
    23:35:00: Balanced after 2 trials
   
    23:40:00: Balanced after 2 trials
   
    23:45:00: Balanced after 2 trials
   
    23:50:00: Balanced after 2 trials
   
    23:55:00: Balanced after 2 trials
   
    24:00:00: Balanced after 4 trials
    24:00:00: Tank 1 is filling at 15.86 ft
   
   
  Node Results at 0:00:00 hrs:
  --------------------------------------------------------
                     Demand      Head  Pressure  Chemical
  Node                  gpm        ft       psi      mg/L
  --------------------------------------------------------
  10                   0.00    146.57     -0.19      0.00
  15                 656.70    122.95     39.41      0.00
  20                   0.00    158.00     12.57      0.00
  35                1691.95    146.31     57.98      0.00
  40                   0.00    145.00      5.68      0.00
  50                   0.00    140.00     10.18      0.00
  60                   0.00    209.03     90.57      0.00
  601                  0.00    302.57    131.10      0.00
  61                   0.00    302.57    131.10      0.00
  101                231.74    146.57     45.31      0.00
  103                162.50    146.53     44.86      0.00
  105                165.15    147.79     51.69      0.00
  107                 66.66    147.78     54.50      0.00
  109                282.31    146.53     54.70      0.00
  111                173.17    146.97     59.35      0.00
  113                 24.41    146.98     62.82      0.00
  115                 63.56    147.81     57.98      0.00
  117                143.61    150.84     59.46      0.00
  119                214.88    157.97     67.58      0.00
  120                  0.00    155.67     67.45      0.00
  121                 50.79    161.34     70.77      0.00
  123                  0.00    165.79     67.07      0.00
  125                 55.63    160.70     64.87      0.00
  127                 21.55    158.83     44.56      0.00
  129                  0.00    158.82     46.72      0.00
  131                 52.16    158.80     66.21      0.00
  139                  7.19    152.96     52.84      0.00
  141                 12.02    148.77     62.73      0.00
  143                  7.56    136.78     61.22      0.00
  145                 33.71    150.18     64.64      0.00
  147                 10.43    151.22     57.51      0.00
  149                 33.03    151.66     58.78      0.00
  151                176.27    155.85     53.02      0.00
  153                 53.89    155.95     38.89      0.00
  157                 63.18    155.58     61.74      0.00
  159                 50.41    152.28     63.38      0.00
  161                 19.28    150.05     63.28      0.00
  163                 11.49    149.59     62.65      0.00
  164                  0.00    149.59     62.65      0.00
  166                  3.17    149.59     65.69      0.00
  167                 17.76    147.75     66.19      0.00
  169                  0.00    147.75     66.19      0.00
  171                 47.99    146.67     65.29      0.00
  173                  0.00    146.65     65.28      0.00
  177                 70.97    146.29     59.92      0.00
  179                  0.00    146.27     59.91      0.00
  181                  0.00    146.31     59.93      0.00
  183                  0.00    146.28     58.62      0.00
  184                  0.00    145.21     55.99      0.00
  185                 31.29    145.77     56.23      0.00
  187                  0.00    146.52     58.07      0.00
  189                131.66    146.79     61.87      0.00
  191                 99.92    146.86     52.80      0.00
  193                 87.00    146.94     55.87      0.00
  195                  0.00    147.01     56.98      0.00
  197                 20.79    146.88     53.68      0.00
  199                145.57    141.72     62.27      0.00
  201                 54.42    141.02     61.06      0.00
  203               4270.86    140.87     60.17      0.00
  204                  0.00    146.26     54.27      0.00
  205                 79.74    141.69     52.29      0.00
  206                  0.00    140.74     60.55      0.00
  207                 84.66    140.99     57.19      0.00
  208                  0.00    140.45     53.92      0.00
  209                  1.06    139.95     61.51      0.00
  211                 10.58    139.79     57.54      0.00
  213                 17.01    139.73     57.51      0.00
  215                112.47    139.56     57.44      0.00
  217                 29.55    139.55     57.87      0.00
  219                 50.41    139.54     58.73      0.00
  225                 27.82    139.54     57.00      0.00
  229                 78.30    139.58     55.93      0.00
  231                 20.11    139.58     58.31      0.00
  237                 19.04    139.64     54.44      0.00
  239                 54.42    139.63     54.87      0.00
  241                  0.00    139.63     54.87      0.00
  243                  5.29    139.63     54.43      0.00
  247                 85.86    139.63     52.70      0.00
  249                  0.00    139.63     52.70      0.00
  251                 29.48    139.63     47.50      0.00
  253                 66.51    139.63     44.90      0.00
  255                 49.28    139.67     48.82      0.00
  257                  0.00    152.71     58.80      0.00
  259                  0.00    152.29     55.16      0.00
  261                  0.00    150.79     65.34      0.00
  263                  0.00    150.64     65.27      0.00
  265                  0.00    148.34     64.27      0.00
  267                  0.00    146.94     54.57      0.00
  269                  0.00    147.14     63.75      0.00
  271                  0.00    146.41     60.84      0.00
  273                  0.00    141.69     57.93      0.00
  275                  0.00    141.02     56.77      0.00
  River           -13147.05    220.00      0.00      0.00  Reservoir
  Lake                 0.00    167.00      0.00      0.00  Reservoir
  1                  626.41    145.00      5.68      0.00  Tank
  2                 -213.74    140.00     10.18      0.00  Tank
  3                 2396.17    158.00     12.57      0.00  Tank
   
   
  Link Results at 0:00:00 hrs:
  ----------------------------------------------
                       Flow  Velocity  Headloss
  Link                  gpm       fps   /1000ft
  ----------------------------------------------
  20               -2396.17      0.10      0.00
  40                -626.41      0.03      0.00
  50                 213.74      0.01      0.00
  60               13147.05      9.32      8.91
  101                  0.00      0.00      0.00
  103                177.05      0.28      0.03
  105               -408.78      1.16      0.48
  107                 45.25      0.13      0.01
  109                 14.54      0.02      0.00
  111               -267.77      0.76      0.22
  112                507.85      1.44      0.72
  113                -28.69      0.08      0.00
  114                129.77      0.83      0.42
  115                -21.41      0.14      0.01
  116                 76.67      0.22      0.02
  117                619.18      1.76      1.04
  119               -722.60      2.05      1.39
  120               1124.61      3.19      3.15
  121               1010.63      2.87      2.58
  122                360.78      2.30      2.76
  123               9683.45      4.40      1.68
  125              13147.05      5.97      2.97
  129               3052.03      2.16      0.68
  131               2783.41      1.97      0.58
  133              -2396.17      2.45      1.06
  135                365.69      0.26      0.01
  137                 52.16      0.08      0.00
  145                313.54      2.00      2.13
  147                306.35      1.96      2.04
  149               -664.26      4.24      8.56
  151               -656.70      4.19      8.38
  153                369.93      1.05      0.40
  155                403.64      1.15      0.47
  159               -414.07      1.17      0.50
  161               -447.10      2.85      4.11
  163               -159.11      0.45      0.08
  169                213.00      1.36      1.04
  171                464.25      1.32      0.61
  173               7879.71      3.58      1.15
  175               7816.52      3.55      1.13
  177               7766.11      3.52      1.12
  179               7504.73      3.41      1.05
  180                  3.17      0.01      0.00
  181                  3.17      0.01      0.00
  183               7295.19      3.31      1.00
  185                -17.76      0.11      0.01
  186                351.16      2.24      2.63
  187               6689.14      3.04      0.85
  189               4550.22      2.07      0.42
  191              -2090.93      1.48      0.34
  193              -1691.95      1.20      0.23
  195                551.39      1.56      0.84
  197                480.42      1.36      0.65
  199               -145.99      0.41      0.07
  201               -626.41      1.78      1.07
  202                528.48      3.37      5.61
  203                208.61      1.33      1.00
  204                528.48      1.50      0.78
  205                351.16      1.00      0.36
  207                354.60      1.01      0.37
  209                148.36      0.95      0.53
  211                588.28      1.67      0.95
  213                202.80      0.58      0.13
  215                198.76      0.56      0.13
  217               -227.90      0.65      0.16
  219               -242.10      0.69      0.18
  221                242.10      1.55      1.32
  223                 74.82      0.21      0.02
  225                 95.61      0.27      0.03
  229               4550.22      3.23      1.23
  231               4293.82      3.05      1.11
  233               4270.86      3.03      1.27
  235                110.83      0.31      0.04
  237                451.16      1.28      0.58
  238                443.45      1.26      0.56
  239                 76.95      0.22      0.02
  240                443.45      1.26      0.56
  241                443.45      1.26      0.56
  243                442.39      0.71      0.14
  245                285.44      0.46      0.06
  247                220.25      0.35      0.04
  249                107.77      0.17      0.01
  251                 50.41      0.11      0.00
  257                 27.82      0.08      0.00
  261                 48.18      0.31      0.07
  263                 20.11      0.06      0.00
  269                146.37      0.42      0.07
  271                 50.22      0.32      0.07
  273                 77.11      0.22      0.02
  275                 11.84      0.03      0.00
  277                  5.29      0.02      0.00
  281                  6.54      0.03      0.00
  283                 10.85      0.03      0.00
  285                -19.18      0.05      0.00
  287                -60.14      0.25      0.03
  289                213.74      0.87      0.35
  291                 66.51      0.27      0.04
  293                 37.81      0.24      0.04
  295                 -8.33      0.02      0.00
  297                474.75      3.03      4.60
  299                228.10      1.46      1.18
  301                228.10      1.46      1.18
  303                246.65      1.57      1.37
  305                144.43      0.41      0.07
  307                391.08      1.11      0.45
  309                194.88      1.24      0.88
  311                  3.87      0.01      0.00
  313                435.87      1.24      0.54
  315              -2243.34      1.59      0.39
  317                108.41      0.69      0.30
  319                  2.42      0.01      0.00
  321               7490.07      3.40      1.05
  323                -31.46      0.09      0.00
  325                152.41      0.97      0.56
  329              13147.05      5.97      3.01
  330                  0.00      0.00      0.00
  333                 -0.00      0.00      0.00
  10                   0.00      0.00      0.00  Pump
  335              13147.05      0.00    -93.54  Pump
   
   
  Node Results at 0:05:00 hrs:
  --------------------------------------------------------
                     Demand      Head  Pressure  Chemical
  Node                  gpm        ft       psi      mg/L
  --------------------------------------------------------
  10                   0.00    146.62     -0.17      0.00
  15                 656.70    123.02     39.44      0.00
  20                   0.00    158.08     12.60      0.00
  35                1691.95    146.36     58.00      0.00
  40                   0.00    145.07      5.71      0.00
  50                   0.00    139.93     10.15      0.00
  60                   0.00    209.03     90.57      0.00
  601                  0.00    302.59    131.11      0.00
  61                   0.00    302.59    131.11      0.00
  101                231.74    146.62     45.33      0.00
  103                162.50    146.58     44.88      0.00
  105                165.15    147.85     51.71      0.00
  107                 66.66    147.84     54.52      0.00
  109                282.31    146.58     54.72      0.00
  111                173.17    147.02     59.37      0.00
  113                 24.41    147.03     62.84      0.00
  115                 63.56    147.86     58.00      0.00
  117                143.61    150.89     59.49      0.00
  119                214.88    158.03     67.61      0.00
  120                  0.00    155.73     67.48      0.00
  121                 50.79    161.40     70.80      0.00
  123                  0.00    165.85     67.10      0.00
  125                 55.63    160.77     64.89      0.00
  127                 21.55    158.91     44.59      0.00
  129                  0.00    158.89     46.75      0.00
  131                 52.16    158.88     66.24      0.00
  139                  7.19    153.03     52.87      0.00
  141                 12.02    148.84     62.76      0.00
  143                  7.56    136.85     61.25      0.00
  145                 33.71    150.25     64.67      0.00
  147                 10.43    151.29     57.54      0.00
  149                 33.03    151.72     58.81      0.00
  151                176.27    155.91     53.04      0.00
  153                 53.89    156.01     38.92      0.00
  157                 63.18    155.64     61.76      0.00
  159                 50.41    152.34     63.41      0.00
  161                 19.28    150.10     63.30      0.00
  163                 11.49    149.65     62.68      0.00
  164                  0.00    149.65     62.68      0.00
  166                  3.17    149.65     65.71      0.00
  167                 17.76    147.80     66.21      0.00
  169                  0.00    147.80     66.21      0.00
  171                 47.99    146.72     65.31      0.00
  173                  0.00    146.70     65.30      0.00
  177                 70.97    146.34     59.94      0.00
  179                  0.00    146.32     59.93      0.00
  181                  0.00    146.37     59.95      0.00
  183                  0.00    146.34     58.64      0.00
  184                  0.00    145.26     56.01      0.00
  185                 31.29    145.82     56.25      0.00
  187                  0.00    146.57     58.09      0.00
  189                131.66    146.84     61.89      0.00
  191                 99.92    146.91     52.82      0.00
  193                 87.00    146.99     55.89      0.00
  195                  0.00    147.06     57.01      0.00
  197                 20.79    146.93     53.70      0.00
  199                145.57    141.75     62.29      0.00
  201                 54.42    141.05     61.08      0.00
  203               4270.86    140.90     60.19      0.00
  204                  0.00    146.31     54.30      0.00
  205                 79.74    141.72     52.31      0.00
  206                  0.00    140.76     60.56      0.00
  207                 84.66    141.02     57.20      0.00
  208                  0.00    140.46     53.93      0.00
  209                  1.06    139.94     61.50      0.00
  211                 10.58    139.77     57.53      0.00
  213                 17.01    139.71     57.50      0.00
  215                112.47    139.54     57.43      0.00
  217                 29.55    139.53     57.86      0.00
  219                 50.41    139.52     58.72      0.00
  225                 27.82    139.52     56.99      0.00
  229                 78.30    139.55     55.92      0.00
  231                 20.11    139.55     58.30      0.00
  237                 19.04    139.60     54.42      0.00
  239                 54.42    139.59     54.85      0.00
  241                  0.00    139.59     54.85      0.00
  243                  5.29    139.59     54.42      0.00
  247                 85.86    139.59     52.68      0.00
  249                  0.00    139.59     52.68      0.00
  251                 29.48    139.59     47.48      0.00
  253                 66.51    139.58     44.88      0.00
  255                 49.28    139.63     48.80      0.00
  257                  0.00    152.76     58.83      0.00
  259                  0.00    152.35     55.18      0.00
  261                  0.00    150.85     65.36      0.00
  263                  0.00    150.69     65.29      0.00
  265                  0.00    148.39     64.30      0.00
  267                  0.00    146.99     54.59      0.00
  269                  0.00    147.19     63.78      0.00
  271                  0.00    146.47     60.86      0.00
  273                  0.00    141.72     57.94      0.00
  275                  0.00    141.05     56.79      0.00
  River           -13144.98    220.00      0.00      0.00  Reservoir
  Lake                 0.00    167.00      0.00      0.00  Reservoir
  1                  620.90    145.07      5.71      0.00  Tank
  2                 -204.37    139.93     10.15      0.00  Tank
  3                 2390.25    158.08     12.60      0.00  Tank
   
   
  Link Results at 0:05:00 hrs:
  ----------------------------------------------
                       Flow  Velocity  Headloss
  Link                  gpm       fps   /1000ft
  ----------------------------------------------
  20               -2390.25      0.10      0.00
  40                -620.90      0.03      0.00
  50                 204.37      0.01      0.00
  60               13144.98      9.32      8.91
  101                  0.00      0.00      0.00
  103                177.16      0.28      0.03
  105               -408.90      1.16      0.48
  107                 45.33      0.13      0.01
  109                 14.66      0.02      0.00
  111               -267.65      0.76      0.22
  112                508.12      1.44      0.72
  113                -28.48      0.08      0.00
  114                129.85      0.83      0.42
  115                -21.33      0.14      0.01
  116                 76.96      0.22      0.02
  117                619.38      1.76      1.04
  119               -722.86      2.05      1.39
  120               1124.95      3.19      3.15
  121               1010.95      2.87      2.59
  122                360.90      2.30      2.77
  123               9686.99      4.40      1.69
  125              13144.98      5.97      2.97
  129               3046.29      2.16      0.68
  131               2777.60      1.97      0.57
  133              -2390.25      2.44      1.06
  135                365.80      0.26      0.01
  137                 52.16      0.08      0.00
  145                313.65      2.00      2.13
  147                306.46      1.96      2.04
  149               -664.26      4.24      8.56
  151               -656.70      4.19      8.38
  153                369.82      1.05      0.40
  155                403.53      1.14      0.47
  159               -413.96      1.17      0.49
  161               -446.98      2.85      4.11
  163               -159.18      0.45      0.08
  169                213.07      1.36      1.04
  171                464.07      1.32      0.61
  173               7883.09      3.58      1.15
  175               7819.91      3.55      1.13
  177               7769.50      3.53      1.12
  179               7508.07      3.41      1.05
  180                  3.17      0.01      0.00
  181                  3.17      0.01      0.00
  183               7298.55      3.31      1.00
  185                -17.76      0.11      0.01
  186                351.64      2.24      2.64
  187               6692.66      3.04      0.85
  189               4558.44      2.07      0.42
  191              -2086.22      1.48      0.34
  193              -1691.95      1.20      0.23
  195                546.71      1.55      0.83
  197                475.74      1.35      0.64
  199               -145.16      0.41      0.07
  201               -620.90      1.76      1.05
  202                529.62      3.38      5.63
  203                209.27      1.34      1.01
  204                529.62      1.50      0.78
  205                351.64      1.00      0.37
  207                354.43      1.01      0.37
  209                148.56      0.95      0.53
  211                588.13      1.67      0.95
  213                203.09      0.58      0.13
  215                198.96      0.56      0.13
  217               -228.01      0.65      0.16
  219               -242.15      0.69      0.18
  221                242.15      1.55      1.32
  223                 74.99      0.21      0.02
  225                 95.78      0.27      0.03
  229               4558.44      3.23      1.24
  231               4300.57      3.05      1.11
  233               4270.86      3.03      1.27
  235                112.30      0.32      0.04
  237                453.63      1.29      0.59
  238                452.82      1.28      0.58
  239                 83.85      0.24      0.03
  240                452.82      1.28      0.58
  241                452.82      1.28      0.58
  243                451.76      0.72      0.14
  245                287.24      0.46      0.06
  247                220.25      0.35      0.04
  249                107.77      0.17      0.01
  251                 50.41      0.11      0.00
  257                 27.82      0.08      0.00
  261                 49.99      0.32      0.07
  263                 20.11      0.06      0.00
  269                153.94      0.44      0.08
  271                 48.42      0.31      0.07
  273                 86.48      0.25      0.03
  275                 15.30      0.04      0.00
  277                  5.29      0.02      0.00
  281                 10.00      0.04      0.00
  283                 16.75      0.05      0.00
  285                -21.49      0.06      0.00
  287                -54.37      0.22      0.03
  289                204.37      0.83      0.33
  291                 66.51      0.27      0.04
  293                 34.21      0.22      0.04
  295                 -4.73      0.01      0.00
  297                474.90      3.03      4.60
  299                228.17      1.46      1.18
  301                228.17      1.46      1.18
  303                246.73      1.57      1.37
  305                144.48      0.41      0.07
  307                391.21      1.11      0.45
  309                194.86      1.24      0.88
  311                  4.10      0.01      0.00
  313                435.69      1.24      0.54
  315              -2238.66      1.59      0.39
  317                108.56      0.69      0.30
  319                  3.74      0.01      0.00
  321               7493.41      3.40      1.05
  323                -24.71      0.07      0.00
  325                152.44      0.97      0.56
  329              13144.98      5.97      3.01
  330                  0.00      0.00      0.00
  333                 -0.00      0.00      0.00
  10                   0.00      0.00      0.00  Pump
  335              13144.98      0.00    -93.56  Pump
   
   
  Node Results at 0:10:00 hrs:
  --------------------------------------------------------
                     Demand      Head  Pressure  Chemical
  Node                  gpm        ft       psi      mg/L
  --------------------------------------------------------
  10                   0.00    146.67     -0.14      0.00
  15                 656.70    123.08     39.47      0.00
  20                   0.00    158.15     12.63      0.00
  35                1691.95    146.41     58.02      0.00
  40                   0.00    145.15      5.74      0.00
  50                   0.00    139.86     10.12      0.00
  60                   0.00    209.03     90.57      0.00
  601                  0.00    302.61    131.12      0.00
  61                   0.00    302.61    131.12      0.00
  101                231.74    146.67     45.35      0.00
  103                162.50    146.64     44.91      0.00
  105                165.15    147.90     51.74      0.00
  107                 66.66    147.89     54.55      0.00
  109                282.31    146.64     54.74      0.00
  111                173.17    147.08     59.40      0.00
  113                 24.41    147.08     62.86      0.00
  115                 63.56    147.92     58.03      0.00
  117                143.61    150.95     59.51      0.00
  119                214.88    158.09     67.63      0.00
  120                  0.00    155.79     67.50      0.00
  121                 50.79    161.46     70.83      0.00
  123                  0.00    165.91     67.12      0.00
  125                 55.63    160.83     64.92      0.00
  127                 21.55    158.98     44.62      0.00
  129                  0.00    158.97     46.78      0.00
  131                 52.16    158.95     66.27      0.00
  139                  7.19    153.10     52.90      0.00
  141                 12.02    148.90     62.79      0.00
  143                  7.56    136.91     61.27      0.00
  145                 33.71    150.31     64.70      0.00
  147                 10.43    151.35     57.56      0.00
  149                 33.03    151.78     58.84      0.00
  151                176.27    155.98     53.07      0.00
  153                 53.89    156.08     38.94      0.00
  157                 63.18    155.70     61.79      0.00
  159                 50.41    152.40     63.43      0.00
  161                 19.28    150.15     63.33      0.00
  163                 11.49    149.70     62.70      0.00
  164                  0.00    149.70     62.70      0.00
  166                  3.17    149.70     65.73      0.00
  167                 17.76    147.85     66.23      0.00
  169                  0.00    147.85     66.23      0.00
  171                 47.99    146.77     65.33      0.00
  173                  0.00    146.75     65.32      0.00
  177                 70.97    146.39     59.97      0.00
  179                  0.00    146.37     59.96      0.00
  181                  0.00    146.42     59.98      0.00
  183                  0.00    146.39     58.66      0.00
  184                  0.00    145.31     56.03      0.00
  185                 31.29    145.87     56.27      0.00
  187                  0.00    146.62     58.12      0.00
  189                131.66    146.89     61.91      0.00
  191                 99.92    146.96     52.85      0.00
  193                 87.00    147.05     55.92      0.00
  195                  0.00    147.11     57.03      0.00
  197                 20.79    146.99     53.72      0.00
  199                145.57    141.79     62.30      0.00
  201                 54.42    141.09     61.09      0.00
  203               4270.86    140.93     60.20      0.00
  204                  0.00    146.36     54.32      0.00
  205                 79.74    141.76     52.32      0.00
  206                  0.00    140.77     60.56      0.00
  207                 84.66    141.05     57.22      0.00
  208                  0.00    140.46     53.93      0.00
  209                  1.06    139.93     61.50      0.00
  211                 10.58    139.75     57.52      0.00
  213                 17.01    139.68     57.49      0.00
  215                112.47    139.52     57.42      0.00
  217                 29.55    139.51     57.85      0.00
  219                 50.41    139.50     58.71      0.00
  225                 27.82    139.50     56.98      0.00
  229                 78.30    139.52     55.90      0.00
  231                 20.11    139.51     58.28      0.00
  237                 19.04    139.57     54.41      0.00
  239                 54.42    139.55     54.83      0.00
  241                  0.00    139.55     54.83      0.00
  243                  5.29    139.55     54.40      0.00
  247                 85.86    139.55     52.67      0.00
  249                  0.00    139.55     52.67      0.00
  251                 29.48    139.55     47.47      0.00
  253                 66.51    139.54     44.86      0.00
  255                 49.28    139.58     48.78      0.00
  257                  0.00    152.82     58.85      0.00
  259                  0.00    152.41     55.20      0.00
  261                  0.00    150.90     65.39      0.00
  263                  0.00    150.75     65.32      0.00
  265                  0.00    148.44     64.32      0.00
  267                  0.00    147.05     54.62      0.00
  269                  0.00    147.24     63.80      0.00
  271                  0.00    146.52     60.89      0.00
  273                  0.00    141.76     57.96      0.00
  275                  0.00    141.09     56.80      0.00
  River           -13142.91    220.00      0.00      0.00  Reservoir
  Lake                 0.00    167.00      0.00      0.00  Reservoir
  1                  615.56    145.15      5.74      0.00  Tank
  2                 -195.25    139.86     10.12      0.00  Tank
  3                 2384.40    158.15     12.63      0.00  Tank
   
   
  Link Results at 0:10:00 hrs:
  ----------------------------------------------
                       Flow  Velocity  Headloss
  Link                  gpm       fps   /1000ft
  ----------------------------------------------
  20               -2384.40      0.10      0.00
  40                -615.56      0.03      0.00
  50                 195.25      0.01      0.00
  60               13142.91      9.32      8.91
  101                  0.00      0.00      0.00
  103                177.28      0.28      0.03
  105               -409.02      1.16      0.48
  107                 45.41      0.13      0.01
  109                 14.78      0.02      0.00
  111               -267.53      0.76      0.22
  112                508.39      1.44      0.72
  113                -28.26      0.08      0.00
  114                129.93      0.83      0.42
  115                -21.25      0.14      0.01
  116                 77.25      0.22      0.02
  117                619.58      1.76      1.04
  119               -723.13      2.05      1.39
  120               1125.29      3.19      3.15
  121               1011.27      2.87      2.59
  122                361.02      2.30      2.77
  123               9690.47      4.40      1.69
  125              13142.91      5.97      2.97
  129               3040.63      2.16      0.68
  131               2771.86      1.97      0.57
  133              -2384.40      2.44      1.05
  135                365.91      0.26      0.01
  137                 52.16      0.08      0.00
  145                313.76      2.00      2.13
  147                306.57      1.96      2.05
  149               -664.26      4.24      8.56
  151               -656.70      4.19      8.38
  153                369.71      1.05      0.40
  155                403.42      1.14      0.47
  159               -413.85      1.17      0.49
  161               -446.87      2.85      4.11
  163               -159.25      0.45      0.08
  169                213.14      1.36      1.04
  171                463.89      1.32      0.61
  173               7886.41      3.58      1.15
  175               7823.22      3.55      1.13
  177               7772.81      3.53      1.12
  179               7511.35      3.41      1.05
  180                  3.17      0.01      0.00
  181                  3.17      0.01      0.00
  183               7301.85      3.31      1.00
  185                -17.76      0.11      0.01
  186                352.12      2.25      2.64
  187               6696.10      3.04      0.85
  189               4566.45      2.07      0.42
  191              -2081.65      1.48      0.34
  193              -1691.95      1.20      0.23
  195                542.17      1.54      0.82
  197                471.21      1.34      0.63
  199               -144.35      0.41      0.07
  201               -615.56      1.75      1.03
  202                530.74      3.39      5.65
  203                209.92      1.34      1.01
  204                530.74      1.51      0.78
  205                352.12      1.00      0.37
  207                354.27      1.00      0.37
  209                148.75      0.95      0.54
  211                587.99      1.67      0.95
  213                203.37      0.58      0.13
  215                199.16      0.56      0.13
  217               -228.12      0.65      0.16
  219               -242.19      0.69      0.18
  221                242.19      1.55      1.32
  223                 75.17      0.21      0.02
  225                 95.96      0.27      0.03
  229               4566.45      3.24      1.24
  231               4307.10      3.05      1.11
  233               4270.86      3.03      1.27
  235                113.78      0.32      0.05
  237                456.09      1.29      0.59
  238                461.94      1.31      0.61
  239                 90.51      0.26      0.03
  240                461.94      1.31      0.61
  241                461.94      1.31      0.61
  243                460.88      0.74      0.15
  245                289.03      0.46      0.06
  247                220.25      0.35      0.04
  249                107.77      0.17      0.01
  251                 50.41      0.11      0.00
  257                 27.82      0.08      0.00
  261                 51.78      0.33      0.08
  263                 20.11      0.06      0.00
  269                161.27      0.46      0.09
  271                 46.63      0.30      0.06
  273                 95.60      0.27      0.03
  275                 18.71      0.05      0.00
  277                  5.29      0.02      0.00
  281                 13.41      0.05      0.00
  283                 22.46      0.06      0.00
  285                -23.72      0.07      0.00
  287                -48.73      0.20      0.02
  289                195.25      0.80      0.30
  291                 66.51      0.27      0.04
  293                 30.73      0.20      0.03
  295                 -1.25      0.00      0.00
  297                475.05      3.03      4.60
  299                228.24      1.46      1.18
  301                228.24      1.46      1.18
  303                246.81      1.58      1.37
  305                144.53      0.41      0.07
  307                391.34      1.11      0.45
  309                194.83      1.24      0.88
  311                  4.32      0.01      0.00
  313                435.52      1.24      0.54
  315              -2234.12      1.58      0.38
  317                108.69      0.69      0.30
  319                  5.09      0.01      0.00
  321               7496.68      3.40      1.05
  323                -18.19      0.05      0.00
  325                152.47      0.97      0.56
  329              13142.91      5.97      3.00
  330                  0.00      0.00      0.00
  333                 -0.00      0.00      0.00
  10                   0.00      0.00      0.00  Pump
  335              13142.91      0.00    -93.57  Pump
   
   
  Node Results at 0:15:00 hrs:
  --------------------------------------------------------
                     Demand      Head  Pressure  Chemical
  Node                  gpm        ft       psi      mg/L
  --------------------------------------------------------
  10                   0.00    146.73     -0.12      0.00
  15                 656.70    123.15     39.49      0.00
  20                   0.00    158.23     12.66      0.00
  35                1691.95    146.46     58.05      0.00
  40                   0.00    145.22      5.77      0.00
  50                   0.00    139.79     10.09      0.00
  60                   0.00    209.04     90.58      0.00
  601                  0.00    302.63    131.13      0.00
  61                   0.00    302.63    131.13      0.00
  101                231.74    146.73     45.38      0.00
  103                162.50    146.69     44.93      0.00
  105                165.15    147.96     51.76      0.00
  107                 66.66    147.94     54.57      0.00
  109                282.31    146.69     54.77      0.00
  111                173.17    147.13     59.42      0.00
  113                 24.41    147.14     62.89      0.00
  115                 63.56    147.97     58.05      0.00
  117                143.61    151.01     59.54      0.00
  119                214.88    158.15     67.66      0.00
  120                  0.00    155.85     67.53      0.00
  121                 50.79    161.53     70.86      0.00
  123                  0.00    165.97     67.15      0.00
  125                 55.63    160.90     64.95      0.00
  127                 21.55    159.05     44.65      0.00
  129                  0.00    159.04     46.81      0.00
  131                 52.16    159.02     66.30      0.00
  139                  7.19    153.16     52.93      0.00
  141                 12.02    148.97     62.81      0.00
  143                  7.56    136.98     61.30      0.00
  145                 33.71    150.38     64.72      0.00
  147                 10.43    151.41     57.59      0.00
  149                 33.03    151.85     58.86      0.00
  151                176.27    156.04     53.10      0.00
  153                 53.89    156.14     38.97      0.00
  157                 63.18    155.75     61.81      0.00
  159                 50.41    152.45     63.46      0.00
  161                 19.28    150.21     63.35      0.00
  163                 11.49    149.75     62.72      0.00
  164                  0.00    149.75     62.72      0.00
  166                  3.17    149.75     65.76      0.00
  167                 17.76    147.91     66.25      0.00
  169                  0.00    147.91     66.25      0.00
  171                 47.99    146.83     65.35      0.00
  173                  0.00    146.80     65.34      0.00
  177                 70.97    146.45     59.99      0.00
  179                  0.00    146.43     59.98      0.00
  181                  0.00    146.47     60.00      0.00
  183                  0.00    146.44     58.69      0.00
  184                  0.00    145.36     56.05      0.00
  185                 31.29    145.92     56.30      0.00
  187                  0.00    146.67     58.14      0.00
  189                131.66    146.94     61.94      0.00
  191                 99.92    147.02     52.87      0.00
  193                 87.00    147.10     55.94      0.00
  195                  0.00    147.17     57.05      0.00
  197                 20.79    147.04     53.75      0.00
  199                145.57    141.82     62.32      0.00
  201                 54.42    141.12     61.10      0.00
  203               4270.86    140.97     60.21      0.00
  204                  0.00    146.41     54.34      0.00
  205                 79.74    141.79     52.34      0.00
  206                  0.00    140.79     60.57      0.00
  207                 84.66    141.07     57.23      0.00
  208                  0.00    140.47     53.93      0.00
  209                  1.06    139.91     61.49      0.00
  211                 10.58    139.73     57.51      0.00
  213                 17.01    139.66     57.48      0.00
  215                112.47    139.50     57.41      0.00
  217                 29.55    139.49     57.84      0.00
  219                 50.41    139.48     58.70      0.00
  225                 27.82    139.48     56.97      0.00
  229                 78.30    139.49     55.89      0.00
  231                 20.11    139.48     58.27      0.00
  237                 19.04    139.53     54.39      0.00
  239                 54.42    139.51     54.82      0.00
  241                  0.00    139.51     54.82      0.00
  243                  5.29    139.51     54.38      0.00
  247                 85.86    139.51     52.65      0.00
  249                  0.00    139.51     52.65      0.00
  251                 29.48    139.51     47.45      0.00
  253                 66.51    139.49     44.84      0.00
  255                 49.28    139.54     48.76      0.00
  257                  0.00    152.88     58.88      0.00
  259                  0.00    152.46     55.23      0.00
  261                  0.00    150.96     65.41      0.00
  263                  0.00    150.80     65.34      0.00
  265                  0.00    148.50     64.34      0.00
  267                  0.00    147.10     54.64      0.00
  269                  0.00    147.29     63.82      0.00
  271                  0.00    146.57     60.91      0.00
  273                  0.00    141.79     57.97      0.00
  275                  0.00    141.12     56.81      0.00
  River           -13140.84    220.00      0.00      0.00  Reservoir
  Lake                 0.00    167.00      0.00      0.00  Reservoir
  1                  610.38    145.22      5.77      0.00  Tank
  2                 -186.37    139.79     10.09      0.00  Tank
  3                 2378.62    158.23     12.66      0.00  Tank
   
   
  Link Results at 0:15:00 hrs:
  ----------------------------------------------
                       Flow  Velocity  Headloss
  Link                  gpm       fps   /1000ft
  ----------------------------------------------
  20               -2378.62      0.10      0.00
  40                -610.38      0.03      0.00
  50                 186.37      0.01      0.00
  60               13140.84      9.32      8.91
  101                  0.00      0.00      0.00
  103                177.40      0.28      0.03
  105               -409.14      1.16      0.48
  107                 45.49      0.13      0.01
  109                 14.89      0.02      0.00
  111               -267.42      0.76      0.22
  112                508.65      1.44      0.72
  113                -28.06      0.08      0.00
  114                130.00      0.83      0.42
  115                -21.17      0.14      0.01
  116                 77.53      0.22      0.02
  117                619.78      1.76      1.05
  119               -723.39      2.05      1.39
  120               1125.63      3.19      3.16
  121               1011.58      2.87      2.59
  122                361.14      2.31      2.77
  123               9693.89      4.40      1.69
  125              13140.84      5.96      2.96
  129               3035.02      2.15      0.68
  131               2766.19      1.96      0.57
  133              -2378.62      2.43      1.05
  135                366.02      0.26      0.01
  137                 52.16      0.08      0.00
  145                313.87      2.00      2.14
  147                306.68      1.96      2.05
  149               -664.26      4.24      8.56
  151               -656.70      4.19      8.38
  153                369.60      1.05      0.40
  155                403.31      1.14      0.47
  159               -413.74      1.17      0.49
  161               -446.77      2.85      4.11
  163               -159.32      0.45      0.08
  169                213.20      1.36      1.04
  171                463.72      1.32      0.61
  173               7889.66      3.58      1.15
  175               7826.48      3.55      1.14
  177               7776.07      3.53      1.12
  179               7514.56      3.41      1.05
  180                  3.17      0.01      0.00
  181                  3.17      0.01      0.00
  183               7305.08      3.32      1.00
  185                -17.76      0.11      0.01
  186                352.58      2.25      2.65
  187               6699.47      3.04      0.85
  189               4574.24      2.08      0.42
  191              -2077.23      1.47      0.34
  193              -1691.95      1.20      0.23
  195                537.78      1.53      0.80
  197                466.81      1.32      0.62
  199               -143.57      0.41      0.07
  201               -610.38      1.73      1.02
  202                531.83      3.39      5.67
  203                210.54      1.34      1.02
  204                531.83      1.51      0.79
  205                352.58      1.00      0.37
  207                354.11      1.00      0.37
  209                148.94      0.95      0.54
  211                587.85      1.67      0.95
  213                203.65      0.58      0.13
  215                199.36      0.57      0.13
  217               -228.23      0.65      0.16
  219               -242.24      0.69      0.18
  221                242.24      1.55      1.32
  223                 75.34      0.21      0.02
  225                 96.13      0.27      0.03
  229               4574.24      3.24      1.24
  231               4313.42      3.06      1.12
  233               4270.86      3.03      1.27
  235                115.25      0.33      0.05
  237                458.53      1.30      0.60
  238                470.82      1.34      0.63
  239                 96.95      0.28      0.03
  240                470.82      1.34      0.63
  241                470.82      1.34      0.63
  243                469.76      0.75      0.15
  245                290.81      0.46      0.06
  247                220.25      0.35      0.04
  249                107.77      0.17      0.01
  251                 50.41      0.11      0.00
  257                 27.82      0.08      0.00
  261                 53.56      0.34      0.08
  263                 20.11      0.06      0.00
  269                168.37      0.48      0.09
  271                 44.85      0.29      0.06
  273                104.48      0.30      0.04
  275                 22.03      0.06      0.00
  277                  5.29      0.02      0.00
  281                 16.73      0.07      0.00
  283                 28.03      0.08      0.00
  285                -25.86      0.07      0.00
  287                -43.27      0.18      0.02
  289                186.37      0.76      0.27
  291                 66.51      0.27      0.04
  293                 27.31      0.17      0.02
  295                  2.17      0.01      0.00
  297                475.19      3.03      4.60
  299                228.31      1.46      1.18
  301                228.31      1.46      1.18
  303                246.88      1.58      1.37
  305                144.58      0.41      0.07
  307                391.47      1.11      0.45
  309                194.81      1.24      0.88
  311                  4.54      0.01      0.00
  313                435.36      1.24      0.54
  315              -2229.73      1.58      0.38
  317                108.81      0.69      0.30
  319                  6.44      0.02      0.00
  321               7499.89      3.40      1.05
  323                -11.87      0.03      0.00
  325                152.50      0.97      0.56
  329              13140.84      5.96      3.00
  330                  0.00      0.00      0.00
  333                 -0.00      0.00      0.00
  10                   0.00      0.00      0.00  Pump
  335              13140.84      0.00    -93.59  Pump
   
   
  Node Results at 0:20:00 hrs:
  --------------------------------------------------------
                     Demand      Head  Pressure  Chemical
  Node                  gpm        ft       psi      mg/L
  --------------------------------------------------------
  10                   0.00    146.78     -0.10      0.00
  15                 656.70    123.21     39.52      0.00
  20                   0.00    158.30     12.70      0.00
  35                1691.95    146.52     58.07      0.00
  40                   0.00    145.29      5.80      0.00
  50                   0.00    139.73     10.06      0.00
  60                   0.00    209.04     90.58      0.00
  601                  0.00    302.65    131.14      0.00
  61                   0.00    302.65    131.14      0.00
  101                231.74    146.78     45.40      0.00
  103                162.50    146.75     44.95      0.00
  105                165.15    148.01     51.78      0.00
  107                 66.66    148.00     54.60      0.00
  109                282.31    146.75     54.79      0.00
  111                173.17    147.19     59.44      0.00
  113                 24.41    147.19     62.91      0.00
  115                 63.56    148.03     58.07      0.00
  117                143.61    151.06     59.56      0.00
  119                214.88    158.21     67.69      0.00
  120                  0.00    155.91     67.55      0.00
  121                 50.79    161.59     70.88      0.00
  123                  0.00    166.03     67.18      0.00
  125                 55.63    160.96     64.98      0.00
  127                 21.55    159.12     44.68      0.00
  129                  0.00    159.11     46.84      0.00
  131                 52.16    159.09     66.33      0.00
  139                  7.19    153.23     52.96      0.00
  141                 12.02    149.03     62.84      0.00
  143                  7.56    137.05     61.33      0.00
  145                 33.71    150.44     64.75      0.00
  147                 10.43    151.48     57.62      0.00
  149                 33.03    151.91     58.89      0.00
  151                176.27    156.10     53.12      0.00
  153                 53.89    156.20     39.00      0.00
  157                 63.18    155.81     61.84      0.00
  159                 50.41    152.51     63.48      0.00
  161                 19.28    150.26     63.38      0.00
  163                 11.49    149.81     62.75      0.00
  164                  0.00    149.81     62.75      0.00
  166                  3.17    149.81     65.78      0.00
  167                 17.76    147.96     66.28      0.00
  169                  0.00    147.96     66.28      0.00
  171                 47.99    146.88     65.37      0.00
  173                  0.00    146.86     65.37      0.00
  177                 70.97    146.50     60.01      0.00
  179                  0.00    146.48     60.00      0.00
  181                  0.00    146.52     60.02      0.00
  183                  0.00    146.50     58.71      0.00
  184                  0.00    145.40     56.07      0.00
  185                 31.29    145.97     56.32      0.00
  187                  0.00    146.73     58.16      0.00
  189                131.66    147.00     61.96      0.00
  191                 99.92    147.07     52.89      0.00
  193                 87.00    147.15     55.96      0.00
  195                  0.00    147.22     57.07      0.00
  197                 20.79    147.09     53.77      0.00
  199                145.57    141.86     62.33      0.00
  201                 54.42    141.16     61.12      0.00
  203               4270.86    141.00     60.23      0.00
  204                  0.00    146.46     54.36      0.00
  205                 79.74    141.83     52.35      0.00
  206                  0.00    140.81     60.58      0.00
  207                 84.66    141.10     57.24      0.00
  208                  0.00    140.48     53.94      0.00
  209                  1.06    139.90     61.49      0.00
  211                 10.58    139.71     57.50      0.00
  213                 17.01    139.65     57.48      0.00
  215                112.47    139.48     57.41      0.00
  217                 29.55    139.47     57.83      0.00
  219                 50.41    139.46     58.69      0.00
  225                 27.82    139.46     56.96      0.00
  229                 78.30    139.46     55.88      0.00
  231                 20.11    139.45     58.26      0.00
  237                 19.04    139.50     54.38      0.00
  239                 54.42    139.48     54.80      0.00
  241                  0.00    139.48     54.80      0.00
  243                  5.29    139.48     54.37      0.00
  247                 85.86    139.48     52.64      0.00
  249                  0.00    139.48     52.64      0.00
  251                 29.48    139.48     47.44      0.00
  253                 66.51    139.45     44.83      0.00
  255                 49.28    139.50     48.74      0.00
  257                  0.00    152.94     58.90      0.00
  259                  0.00    152.52     55.25      0.00
  261                  0.00    151.02     65.44      0.00
  263                  0.00    150.86     65.37      0.00
  265                  0.00    148.55     64.37      0.00
  267                  0.00    147.15     54.66      0.00
  269                  0.00    147.35     63.85      0.00
  271                  0.00    146.62     60.93      0.00
  273                  0.00    141.83     57.99      0.00
  275                  0.00    141.16     56.83      0.00
  River           -13138.77    220.00      0.00      0.00  Reservoir
  Lake                 0.00    167.00      0.00      0.00  Reservoir
  1                  605.37    145.29      5.80      0.00  Tank
  2                 -177.72    139.73     10.06      0.00  Tank
  3                 2372.91    158.30     12.70      0.00  Tank
   
   
  Link Results at 0:20:00 hrs:
  ----------------------------------------------
                       Flow  Velocity  Headloss
  Link                  gpm       fps   /1000ft
  ----------------------------------------------
  20               -2372.91      0.10      0.00
  40                -605.37      0.03      0.00
  50                 177.72      0.01      0.00
  60               13138.77      9.32      8.90
  101                  0.00      0.00      0.00
  103                177.51      0.28      0.03
  105               -409.25      1.16      0.48
  107                 45.57      0.13      0.01
  109                 15.01      0.02      0.00
  111               -267.30      0.76      0.22
  112                508.91      1.44      0.73
  113                -27.85      0.08      0.00
  114                130.07      0.83      0.42
  115                -21.09      0.13      0.01
  116                 77.81      0.22      0.02
  117                619.97      1.76      1.05
  119               -723.64      2.05      1.39
  120               1125.96      3.19      3.16
  121               1011.88      2.87      2.59
  122                361.26      2.31      2.77
  123               9697.24      4.40      1.69
  125              13138.77      5.96      2.96
  129               3029.49      2.15      0.67
  131               2760.58      1.96      0.57
  133              -2372.91      2.42      1.04
  135                366.13      0.26      0.01
  137                 52.16      0.08      0.00
  145                313.97      2.00      2.14
  147                306.79      1.96      2.05
  149               -664.26      4.24      8.56
  151               -656.70      4.19      8.38
  153                369.49      1.05      0.40
  155                403.20      1.14      0.47
  159               -413.63      1.17      0.49
  161               -446.66      2.85      4.11
  163               -159.38      0.45      0.08
  169                213.27      1.36      1.04
  171                463.54      1.31      0.61
  173               7892.86      3.58      1.15
  175               7829.68      3.55      1.14
  177               7779.27      3.53      1.12
  179               7517.71      3.41      1.05
  180                  3.17      0.01      0.00
  181                  3.17      0.01      0.00
  183               7308.26      3.32      1.00
  185                -17.76      0.11      0.01
  186                353.04      2.25      2.66
  187               6702.77      3.04      0.85
  189               4581.83      2.08      0.42
  191              -2072.95      1.47      0.33
  193              -1691.95      1.20      0.23
  195                533.52      1.51      0.79
  197                462.56      1.31      0.61
  199               -142.82      0.41      0.07
  201               -605.37      1.72      1.00
  202                532.89      3.40      5.69
  203                211.15      1.35      1.03
  204                532.89      1.51      0.79
  205                353.04      1.00      0.37
  207                353.97      1.00      0.37
  209                149.12      0.95      0.54
  211                587.73      1.67      0.95
  213                203.92      0.58      0.13
  215                199.55      0.57      0.13
  217               -228.33      0.65      0.16
  219               -242.28      0.69      0.18
  221                242.28      1.55      1.32
  223                 75.50      0.21      0.02
  225                 96.29      0.27      0.03
  229               4581.83      3.25      1.25
  231               4319.54      3.06      1.12
  233               4270.86      3.03      1.27
  235                116.72      0.33      0.05
  237                460.95      1.31      0.60
  238                479.47      1.36      0.65
  239                103.18      0.29      0.04
  240                479.47      1.36      0.65
  241                479.47      1.36      0.65
  243                478.41      0.76      0.16
  245                292.57      0.47      0.06
  247                220.25      0.35      0.04
  249                107.77      0.17      0.01
  251                 50.41      0.11      0.00
  257                 27.82      0.08      0.00
  261                 55.32      0.35      0.09
  263                 20.11      0.06      0.00
  269                175.26      0.50      0.10
  271                 43.08      0.28      0.05
  273                113.13      0.32      0.04
  275                 25.27      0.07      0.00
  277                  5.29      0.02      0.00
  281                 19.97      0.08      0.00
  283                 33.44      0.09      0.00
  285                -28.00      0.08      0.00
  287                -37.89      0.15      0.01
  289                177.72      0.73      0.25
  291                 66.51      0.27      0.04
  293                 24.04      0.15      0.02
  295                  5.44      0.02      0.00
  297                475.34      3.03      4.61
  299                228.38      1.46      1.19
  301                228.38      1.46      1.19
  303                246.96      1.58      1.37
  305                144.63      0.41      0.07
  307                391.59      1.11      0.45
  309                194.79      1.24      0.88
  311                  4.76      0.01      0.00
  313                435.20      1.23      0.54
  315              -2225.47      1.58      0.38
  317                108.92      0.70      0.30
  319                  7.80      0.02      0.00
  321               7503.05      3.41      1.05
  323                 -5.74      0.02      0.00
  325                152.53      0.97      0.56
  329              13138.77      5.96      3.00
  330                  0.00      0.00      0.00
  333                 -0.00      0.00      0.00
  10                   0.00      0.00      0.00  Pump
  335              13138.77      0.00    -93.61  Pump
   
   
  Node Results at 0:25:00 hrs:
  --------------------------------------------------------
                     Demand      Head  Pressure  Chemical
  Node                  gpm        ft       psi      mg/L
  --------------------------------------------------------
  10                   0.00    146.83     -0.07      0.00
  15                 656.70    123.28     39.55      0.00
  20                   0.00    158.38     12.73      0.00
  35                1691.95    146.57     58.09      0.00
  40                   0.00    145.36      5.83      0.00
  50                   0.00    139.67     10.04      0.00
  60                   0.00    209.04     90.58      0.00
  601                  0.00    302.67    131.15      0.00
  61                   0.00    302.67    131.15      0.00
  101                231.74    146.83     45.42      0.00
  103                162.50    146.80     44.98      0.00
  105                165.15    148.07     51.81      0.00
  107                 66.66    148.05     54.62      0.00
  109                282.31    146.80     54.81      0.00
  111                173.17    147.24     59.47      0.00
  113                 24.41    147.24     62.93      0.00
  115                 63.56    148.08     58.10      0.00
  117                143.61    151.12     59.59      0.00
  119                214.88    158.27     67.71      0.00
  120                  0.00    155.97     67.58      0.00
  121                 50.79    161.65     70.91      0.00
  123                  0.00    166.09     67.20      0.00
  125                 55.63    161.03     65.01      0.00
  127                 21.55    159.19     44.71      0.00
  129                  0.00    159.18     46.87      0.00
  131                 52.16    159.16     66.37      0.00
  139                  7.19    153.30     52.99      0.00
  141                 12.02    149.10     62.87      0.00
  143                  7.56    137.11     61.36      0.00
  145                 33.71    150.50     64.78      0.00
  147                 10.43    151.54     57.65      0.00
  149                 33.03    151.98     58.92      0.00
  151                176.27    156.16     53.15      0.00
  153                 53.89    156.26     39.02      0.00
  157                 63.18    155.87     61.86      0.00
  159                 50.41    152.56     63.51      0.00
  161                 19.28    150.32     63.40      0.00
  163                 11.49    149.86     62.77      0.00
  164                  0.00    149.86     62.77      0.00
  166                  3.17    149.86     65.80      0.00
  167                 17.76    148.01     66.30      0.00
  169                  0.00    148.01     66.30      0.00
  171                 47.99    146.93     65.40      0.00
  173                  0.00    146.91     65.39      0.00
  177                 70.97    146.55     60.04      0.00
  179                  0.00    146.54     60.03      0.00
  181                  0.00    146.58     60.05      0.00
  183                  0.00    146.55     58.73      0.00
  184                  0.00    145.45     56.09      0.00
  185                 31.29    146.02     56.34      0.00
  187                  0.00    146.78     58.18      0.00
  189                131.66    147.05     61.98      0.00
  191                 99.92    147.12     52.92      0.00
  193                 87.00    147.21     55.99      0.00
  195                  0.00    147.27     57.10      0.00
  197                 20.79    147.15     53.79      0.00
  199                145.57    141.90     62.35      0.00
  201                 54.42    141.19     61.13      0.00
  203               4270.86    141.04     60.24      0.00
  204                  0.00    146.51     54.39      0.00
  205                 79.74    141.86     52.37      0.00
  206                  0.00    140.83     60.59      0.00
[...]
  219                 65.29    139.11     58.54      0.00
  225                 36.02    139.11     56.81      0.00
  229                101.40    139.21     55.77     81.62
  231                 26.04    139.20     58.15      0.00
  237                 24.66    139.31     54.30     91.30
  239                 70.48    139.30     54.73     76.28
  241                  0.00    139.30     54.73      0.00
  243                  6.86    139.30     54.29      0.00
  247                111.20    139.30     52.56      0.00
  249                  0.00    139.30     52.56      0.00
  251                 38.17    139.30     47.36      0.00
  253                 86.14    139.34     44.78      0.00
  255                 63.82    139.41     48.71      0.00
  257                  0.00    152.06     58.52      0.00
  259                  0.00    151.63     54.87      0.00
  261                  0.00    150.05     65.02      0.00
  263                  0.00    149.88     64.94      0.00
  265                  0.00    148.78     64.47      0.00
  267                  0.00    147.10     54.64     10.17
  269                  0.00    147.57     63.94      0.00
  271                  0.00    147.15     61.16      0.00
  273                  0.00    142.08     58.10      0.00
  275                  0.00    141.43     56.95      7.13
  River           -13202.76    220.00      0.00      0.00  Reservoir
  Lake                 0.00    167.00      0.00      0.00  Reservoir
  1                 -459.56    147.82      6.90      0.00  Tank
  2                 -303.20    140.04     10.20      0.00  Tank
  3                  843.11    160.16     13.50      0.00  Tank
   
   
  Link Results at 23:55:00 hrs:
  ----------------------------------------------
                       Flow  Velocity  Headloss
  Link                  gpm       fps   /1000ft
  ----------------------------------------------
  20                -843.11      0.04      0.00
  40                 459.56      0.02      0.00
  50                 303.20      0.01      0.00
  60               13202.76      9.36      8.98
  101                  0.00      0.00      0.00
  103                130.93      0.21      0.01
  105               -431.05      1.22      0.53
  107                 -2.91      0.01      0.00
  109                -79.53      0.13      0.01
  111               -445.14      1.26      0.57
  112                433.45      1.23      0.54
  113               -169.81      0.48      0.10
  114                 94.83      0.61      0.23
  115                -89.24      0.57      0.21
  116               -106.60      0.30      0.04
  117                642.02      1.82      1.12
  119               -699.84      1.99      1.31
  120               1168.45      3.31      3.38
  121               1039.36      2.95      2.72
  122                359.40      2.29      2.75
  123               9354.30      4.25      1.58
  125              11218.85      5.09      2.21
  129               1439.39      1.02      0.17
  131               1170.26      0.83      0.12
  133               -843.11      0.86      0.15
  135                299.25      0.21      0.01
  137                 67.54      0.11      0.00
  145                231.70      1.48      1.22
  147                222.40      1.42      1.13
  149               -344.23      2.20      2.53
  151               -334.43      2.13      2.40
  153                137.39      0.39      0.06
  155                181.05      0.51      0.11
  159               -194.56      0.55      0.12
  161               -237.33      1.51      1.27
  163               -127.29      0.36      0.06
  169                197.08      1.26      0.90
  171                338.32      0.96      0.34
  173               7569.25      3.44      1.07
  175               7487.42      3.40      1.05
  177               7422.13      3.37      1.03
  179               7139.22      3.24      0.96
  180                  4.11      0.01      0.00
  181                  4.11      0.01      0.00
  183               6904.64      3.13      0.90
  185                -23.00      0.15      0.02
  186                281.20      1.79      1.74
  187               6261.04      2.84      0.75
  189               4651.28      2.11      0.43
  191              -1547.60      1.10      0.19
  193              -1828.48      1.30      0.26
  195               -166.53      0.47      0.09
  197               -258.44      0.73      0.21
  199                201.12      0.57      0.13
  201                459.56      1.30      0.60
  202                528.13      3.37      5.60
  203                287.45      1.83      1.82
  204                528.13      1.50      0.78
  205                281.20      0.80      0.24
  207                 86.33      0.24      0.03
  209                201.00      1.28      0.94
  211                620.60      1.76      1.05
  213                 80.20      0.23      0.02
  215                -48.41      0.14      0.01
  217               -302.67      0.86      0.28
  219               -257.95      0.73      0.21
  221                257.95      1.65      1.49
  223                -93.07      0.26      0.03
  225                -66.14      0.19      0.02
  229               4651.28      3.30      1.28
  231               4300.96      3.05      1.11
  233               4159.58      2.95      1.21
  235                161.79      0.46      0.09
  237                480.25      1.36      0.65
  238                547.92      1.55      0.83
  239                177.30      0.50      0.10
  240                547.92      1.55      0.83
  241                547.92      1.55      0.83
  243                546.54      0.87      0.20
  245                364.79      0.58      0.10
  247                285.24      0.46      0.06
  249                139.58      0.22      0.02
  251                 65.29      0.14      0.01
  257                 36.02      0.10      0.01
  261                 57.53      0.37      0.09
  263                 26.04      0.07      0.00
  269                168.05      0.48      0.09
  271                 69.91      0.45      0.13
  273                 73.47      0.21      0.02
  275                  5.68      0.02      0.00
  277                  6.86      0.02      0.00
  281                 -1.18      0.00      0.00
  283                 -2.69      0.01      0.00
  285                -17.91      0.05      0.00
  287                -94.47      0.39      0.08
  289                303.20      1.24      0.68
  291                 86.14      0.35      0.07
  293                 58.77      0.38      0.10
  295                -20.60      0.06      0.00
  297                488.48      3.12      4.85
  299                234.81      1.50      1.25
  301                234.81      1.50      1.25
  303                253.67      1.62      1.44
  305                153.54      0.44      0.08
  307                407.21      1.16      0.48
  309                215.59      1.38      1.07
  311               -264.00      0.75      0.22
  313                506.25      1.44      0.72
  315              -1661.95      1.18      0.22
  317                106.40      0.68      0.29
  319                 55.39      0.16      0.01
  321               7120.23      3.23      0.95
  323                 70.90      0.20      0.02
  325                114.35      0.73      0.33
  329              13202.76      5.99      3.03
  330                  0.00      0.00      0.00
  333                 -0.00      0.00      0.00
  10                   0.00      0.00      0.00  Pump
  335              13202.76      0.00    -93.05  Pump
   
   
  Node Results at 24:00:00 hrs:
  --------------------------------------------------------
                     Demand      Head  Pressure  Chemical
  Node                  gpm        ft       psi      mg/L
  --------------------------------------------------------
  10                   0.00    148.69      0.73      0.00
  15                 656.70    125.06     40.33      0.00
  20                   0.00    160.19     13.51      0.00
  35                1691.95    148.47     58.91      0.00
  40                   0.00    147.76      6.87      0.00
  50                   0.00    139.93     10.15      0.00
  60                   0.00    209.13     90.62      0.00
  601                  0.00    303.28    131.41      0.00
  61                   0.00    303.28    131.41      0.00
  101                231.74    148.69     46.23      0.00
  103                162.50    148.65     45.78      0.00
  105                165.15    149.91     52.61      0.00
  107                 66.66    149.90     55.42      0.00
  109                282.31    148.65     55.62      0.00
  111                173.17    149.10     60.27      0.00
  113                 24.41    149.10     63.74      0.00
  115                 63.56    149.93     58.90      0.00
  117                143.61    152.95     60.38      0.00
  119                214.88    160.05     68.48      0.00
  120                  0.00    157.76     68.36      0.00
  121                 50.79    163.41     71.67      0.00
  123                  0.00    167.82     67.95      0.00
  125                 55.63    162.80     65.77      0.00
  127                 21.55    160.99     45.49      0.00
  129                  0.00    160.98     47.65      0.00
  131                 52.16    160.96     67.14      0.00
  139                  7.19    155.09     53.77      0.00
  141                 12.02    150.89     63.65      0.00
  143                  7.56    138.90     62.13      0.00
  145                 33.71    152.29     65.55      0.00
  147                 10.43    153.33     58.42      0.00
  149                 33.03    153.76     59.69      0.00
  151                176.27    157.94     53.92      0.00
  153                 53.89    158.04     39.80      0.00
  157                 63.18    157.67     62.64      0.00
  159                 50.41    154.38     64.30      0.00
  161                 19.28    152.15     64.19      0.00
  163                 11.49    151.70     63.57      0.00
  164                  0.00    151.70     63.57      0.00
  166                  3.17    151.70     66.60      0.00
  167                 17.76    149.86     67.10      0.00
  169                  0.00    149.86     67.10      0.00
  171                 47.99    148.79     66.20      0.00
  173                  0.00    148.77     66.19      0.00
  177                 70.97    148.46     60.86      0.00
  179                  0.00    148.45     60.86      0.00
  181                  0.00    148.47     60.87      0.00
  183                  0.00    148.46     59.56      0.00
  184                  0.00    147.28     56.88      0.00
  185                 31.29    147.88     57.14      0.00
  187                  0.00    148.64     58.99      0.00
  189                131.66    148.92     62.79      0.00
  191                 99.92    148.98     53.72      6.01
  193                 87.00    149.07     56.79      5.73
  195                  0.00    149.14     57.90      0.00
  197                 20.79    149.01     54.60      0.00
  199                145.57    143.55     63.07      0.00
  201                 54.42    142.82     61.84      0.00
  203               4270.86    142.67     60.95      0.00
  204                  0.00    148.37     55.19      0.00
  205                 79.74    143.50     53.08      8.40
  206                  0.00    142.20     61.18     92.49
  207                 84.66    142.65     57.91     80.44
  208                  0.00    141.69     54.46     92.02
  209                  1.06    140.81     61.88     68.99
  211                 10.58    140.51     57.85     97.01
  213                 17.01    140.44     57.82    125.01
  215                112.47    140.28     57.75      0.00
  217                 29.55    140.26     58.18      0.00
  219                 50.41    140.25     59.04      0.00
  225                 27.82    140.26     57.31      0.00
  229                 78.30    140.04     56.13     85.02
  231                 20.11    140.03     58.51      0.00
  237                 19.04    140.04     54.61     96.76
  239                 54.42    139.95     55.01     84.20
  241                  0.00    139.95     55.01      0.00
  243                  5.29    139.95     54.57      0.00
  247                 85.86    139.93     52.83      0.00
  249                  0.00    139.93     52.83      0.00
  251                 29.48    139.92     47.63      0.00
  253                 66.51    139.86     45.00      0.00
  255                 49.28    139.91     48.92      0.00
  257                  0.00    154.81     59.71      0.00
  259                  0.00    154.40     56.07      0.00
  261                  0.00    152.90     66.25      0.00
  263                  0.00    152.75     66.18      0.00
  265                  0.00    150.45     65.19      0.00
  267                  0.00    149.07     55.49      9.86
  269                  0.00    149.27     64.68      0.00
  271                  0.00    148.56     61.77      0.00
  273                  0.00    143.50     58.71      0.00
  275                  0.00    142.81     57.55      0.00
  River           -13078.41    220.00      0.00      0.00  Reservoir
  Lake                 0.00    167.00      0.00      0.00  Reservoir
  1                  449.84    147.76      6.87      0.00  Tank
  2                  -53.15    139.93     10.15      0.00  Tank
  3                 2343.51    160.19     13.51      0.00  Tank
   
   
  Link Results at 24:00:00 hrs:
  ----------------------------------------------
                       Flow  Velocity  Headloss
  Link                  gpm       fps   /1000ft
  ----------------------------------------------
  20               -2343.51      0.10      0.00
  40                -449.84      0.02      0.00
  50                  53.15      0.00      0.00
  60               13078.41      9.28      8.83
  101                  0.00      0.00      0.00
  103                176.34      0.28      0.03
  105               -408.08      1.16      0.48
  107                 44.76      0.13      0.01
  109                 13.84      0.02      0.00
  111               -268.47      0.76      0.22
  112                506.23      1.44      0.72
  113                -30.42      0.09      0.00
  114                129.30      0.83      0.41
  115                -21.90      0.14      0.02
  116                 74.47      0.21      0.02
  117                617.99      1.75      1.04
  119               -721.00      2.05      1.38
  120               1122.45      3.18      3.14
  121               1008.74      2.86      2.58
  122                360.14      2.30      2.76
  123               9667.30      4.39      1.68
  125              13078.41      5.94      2.94
  129               3000.17      2.13      0.66
  131               2731.48      1.94      0.56
  133              -2343.51      2.39      1.02
  135                366.42      0.26      0.01
  137                 52.16      0.08      0.00
  145                314.27      2.01      2.14
  147                307.08      1.96      2.05
  149               -664.26      4.24      8.56
  151               -656.70      4.19      8.38
  153                369.20      1.05      0.40
  155                402.91      1.14      0.47
  159               -413.34      1.17      0.49
  161               -446.36      2.85      4.10
  163               -159.17      0.45      0.08
  169                213.06      1.36      1.04
  171                463.45      1.31      0.61
  173               7866.52      3.57      1.15
  175               7803.33      3.54      1.13
  177               7752.92      3.52      1.12
  179               7492.39      3.40      1.05
  180                  3.17      0.01      0.00
  181                  3.17      0.01      0.00
  183               7283.97      3.31      0.99
  185                -17.76      0.11      0.01
  186                356.19      2.27      2.70
  187               6685.27      3.03      0.85
  189               4690.50      2.13      0.44
  191              -1946.78      1.38      0.30
  193              -1691.95      1.20      0.23
  195                405.06      1.15      0.48
  197                334.09      0.95      0.33
  199               -115.75      0.33      0.05
  201               -449.84      1.28      0.58
  202                548.79      3.50      6.01
  203                223.90      1.43      1.14
  204                548.79      1.56      0.83
  205                356.19      1.01      0.37
  207                339.65      0.96      0.34
  209                152.28      0.97      0.56
  211                580.94      1.65      0.93
  213                203.91      0.58      0.13
  215                192.88      0.55      0.12
  217               -229.60      0.65      0.17
  219               -241.26      0.68      0.18
  221                241.26      1.54      1.31
  223                 74.23      0.21      0.02
  225                 95.02      0.27      0.03
  229               4690.50      3.33      1.30
  231               4402.17      3.12      1.16
  233               4270.86      3.03      1.27
  235                142.76      0.40      0.07
  237                501.48      1.42      0.71
  238                604.04      1.71      1.00
  239                187.22      0.53      0.11
  240                604.04      1.71      1.00
  241                604.04      1.71      1.00
  243                602.98      0.96      0.24
  245                320.60      0.51      0.08
  247                220.25      0.35      0.04
  249                107.77      0.17      0.01
  251                 50.41      0.11      0.00
  257                 27.82      0.08      0.00
  261                 83.35      0.53      0.18
  263                 20.11      0.06      0.00
  269                271.81      0.77      0.23
  271                 15.06      0.10      0.01
  273                237.70      0.67      0.18
  275                 71.93      0.20      0.02
  277                  5.29      0.02      0.00
  281                 66.63      0.27      0.04
  283                111.35      0.32      0.04
  285                -63.04      0.18      0.02
  287                 43.81      0.18      0.02
  289                 53.15      0.22      0.03
  291                 66.51      0.27      0.04
  293                -18.83      0.12      0.01
  295                 48.31      0.14      0.01
  297                473.86      3.02      4.58
  299                227.67      1.45      1.18
  301                227.67      1.45      1.18
  303                246.19      1.57      1.36
  305                144.13      0.41      0.07
  307                390.32      1.11      0.44
  309                193.75      1.24      0.87
  311                 -0.88      0.00      0.00
  313                430.71      1.22      0.53
  315              -2097.01      1.49      0.34
  317                110.34      0.70      0.31
  319                 32.42      0.09      0.00
  321               7477.73      3.39      1.04
  323                 76.88      0.22      0.02
  325                150.23      0.96      0.55
  329              13078.41      5.94      2.98
  330                  0.00      0.00      0.00
  333                 -0.00      0.00      0.00
  10                   0.00      0.00      0.00  Pump
  335              13078.41      0.00    -94.14  Pump
   
  Analysis ended Wed May 06 17:17:59 2020
