  Page 1                                    Sat May 02 20:55:58 2020

  ******************************************************************
  *                           E P A N E T                          *
  *                   Hydraulic and Water Quality                  *
  *                   Analysis for Pipe Networks                   *
  *                         Version 2.00.12                        *
  ******************************************************************
  
  Analysis begun Sat May 02 20:55:58 2020

   
  Hydraulic Status:
  -----------------------------------------------------------------------
     0:00:00: Balanced after 6 trials
     0:00:00: Reservoir River is emptying
     0:00:00: Reservoir Lake is closed
     0:00:00: Tank 1 is filling at 13.10 ft
     0:00:00: Tank 2 is emptying at 23.50 ft
     0:00:00: Tank 3 is filling at 29.00 ft
   
     0:05:00: Balanced after 2 trials
   
     0:10:00: Balanced after 2 trials
   
     0:15:00: Balanced after 2 trials
   
     0:20:00: Balanced after 2 trials
   
     0:25:00: Balanced after 2 trials
   
     0:30:00: Balanced after 2 trials
   
     0:35:00: Balanced after 2 trials
   
     0:40:00: Balanced after 2 trials
   
     0:45:00: Balanced after 2 trials
   
     0:50:00: Balanced after 2 trials
   
     0:55:00: Balanced after 2 trials
   
     1:00:00: Pump 10 changed by timer control
     1:00:00: Balanced after 7 trials
     1:00:00: Reservoir Lake is emptying
     1:00:00: Pump 10 changed from closed to open
   
     1:05:00: Balanced after 1 trials
     1:05:00: Tank 2 is filling at 22.16 ft
   
     1:10:00: Balanced after 1 trials
   
     1:15:00: Balanced after 1 trials
   
     1:20:00: Balanced after 1 trials
   
     1:25:00: Balanced after 1 trials
   
     1:30:00: Balanced after 1 trials
   
     1:35:00: Balanced after 1 trials
   
     1:40:00: Balanced after 1 trials
   
     1:45:00: Balanced after 1 trials
   
     1:50:00: Balanced after 1 trials
   
     1:55:00: Balanced after 1 trials
   
     2:00:00: Balanced after 3 trials
     2:00:00: Tank 2 is emptying at 22.27 ft
   
     2:05:00: Balanced after 1 trials
   
     2:10:00: Balanced after 1 trials
   
     2:15:00: Balanced after 1 trials
   
     2:20:00: Balanced after 1 trials
   
     2:25:00: Balanced after 1 trials
   
     2:30:00: Balanced after 1 trials
   
     2:35:00: Balanced after 1 trials
     2:35:00: Tank 2 is filling at 22.22 ft
   
     2:40:00: Balanced after 1 trials
   
     2:45:00: Balanced after 1 trials
   
     2:50:00: Balanced after 1 trials
   
     2:55:00: Balanced after 1 trials
   
     3:00:00: Balanced after 3 trials
   
     3:05:00: Balanced after 1 trials
   
     3:10:00: Balanced after 1 trials
   
     3:15:00: Balanced after 1 trials
   
     3:20:00: Balanced after 1 trials
   
     3:25:00: Balanced after 1 trials
   
     3:30:00: Balanced after 1 trials
   
     3:35:00: Balanced after 1 trials
   
     3:40:00: Balanced after 1 trials
   
     3:45:00: Balanced after 1 trials
   
     3:50:00: Balanced after 1 trials
   
     3:55:00: Balanced after 1 trials
   
     4:00:00: Balanced after 3 trials
   
     4:05:00: Balanced after 1 trials
   
     4:10:00: Balanced after 1 trials
   
     4:10:28: Pump 335 changed by Tank 1 control
     4:10:28: Pipe 330 changed by Tank 1 control
     4:10:28: Balanced after 4 trials
     4:10:28: Pipe 330 changed from closed to open
     4:10:28: Pump 335 changed from open to closed
   
     4:15:00: Balanced after 2 trials
   
     4:20:00: Balanced after 2 trials
   
     4:25:00: Balanced after 2 trials
   
     4:30:00: Balanced after 2 trials
   
     4:35:00: Balanced after 2 trials
   
     4:40:00: Balanced after 2 trials
   
     4:45:00: Balanced after 2 trials
   
     4:50:00: Balanced after 2 trials
   
     4:55:00: Balanced after 2 trials
   
     5:00:00: Balanced after 3 trials
     5:00:00: Tank 3 is emptying at 34.30 ft
   
     5:05:00: Balanced after 2 trials
   
     5:10:00: Balanced after 2 trials
   
     5:15:00: Balanced after 2 trials
   
     5:20:00: Balanced after 2 trials
   
     5:25:00: Balanced after 2 trials
   
     5:30:00: Balanced after 2 trials
   
     5:35:00: Balanced after 2 trials
   
     5:40:00: Balanced after 2 trials
   
     5:45:00: Balanced after 2 trials
   
     5:50:00: Balanced after 2 trials
   
     5:55:00: Balanced after 2 trials
   
     6:00:00: Balanced after 2 trials
     6:00:00: Tank 3 is filling at 34.06 ft
   
     6:05:00: Balanced after 1 trials
   
     6:10:00: Balanced after 1 trials
   
     6:15:00: Balanced after 1 trials
   
     6:20:00: Balanced after 1 trials
   
     6:25:00: Balanced after 1 trials
   
     6:30:00: Balanced after 1 trials
   
     6:35:00: Balanced after 1 trials
   
     6:40:00: Balanced after 1 trials
   
     6:45:00: Balanced after 1 trials
   
     6:50:00: Balanced after 1 trials
   
     6:55:00: Balanced after 1 trials
   
     7:00:00: Balanced after 3 trials
   
     7:05:00: Balanced after 1 trials
   
     7:10:00: Balanced after 1 trials
   
     7:15:00: Balanced after 1 trials
   
     7:20:00: Balanced after 1 trials
   
     7:25:00: Balanced after 1 trials
   
     7:30:00: Balanced after 1 trials
   
     7:35:00: Balanced after 1 trials
   
     7:40:00: Balanced after 1 trials
   
     7:45:00: Balanced after 1 trials
   
     7:50:00: Balanced after 1 trials
   
     7:55:00: Balanced after 1 trials
   
     8:00:00: Balanced after 2 trials
   
     8:05:00: Balanced after 1 trials
   
     8:10:00: Balanced after 1 trials
   
     8:15:00: Balanced after 1 trials
   
     8:20:00: Balanced after 1 trials
   
     8:25:00: Balanced after 1 trials
   
     8:30:00: Balanced after 1 trials
   
     8:35:00: Balanced after 1 trials
   
     8:40:00: Balanced after 1 trials
   
     8:45:00: Balanced after 1 trials
   
     8:50:00: Balanced after 1 trials
   
     8:55:00: Balanced after 1 trials
   
     9:00:00: Balanced after 3 trials
     9:00:00: Tank 1 is emptying at 21.56 ft
     9:00:00: Tank 3 is emptying at 34.91 ft
   
     9:05:00: Balanced after 1 trials
   
     9:10:00: Balanced after 1 trials
     9:10:00: Tank 2 is closed at 26.59 ft
   
     9:15:00: Balanced after 1 trials
     9:15:00: Tank 2 is emptying at 26.59 ft
   
     9:20:00: Balanced after 1 trials
   
     9:25:00: Balanced after 1 trials
   
     9:30:00: Balanced after 1 trials
   
     9:35:00: Balanced after 1 trials
   
     9:40:00: Balanced after 1 trials
   
     9:45:00: Balanced after 1 trials
   
     9:50:00: Balanced after 1 trials
   
     9:55:00: Balanced after 1 trials
   
    10:00:00: Balanced after 3 trials
    10:00:00: Tank 1 is filling at 21.19 ft
    10:00:00: Tank 2 is filling at 26.57 ft
   
    10:05:00: Balanced after 1 trials
   
    10:10:00: Balanced after 1 trials
   
    10:15:00: Balanced after 1 trials
   
    10:20:00: Balanced after 1 trials
   
    10:25:00: Balanced after 1 trials
   
    10:30:00: Balanced after 1 trials
    10:30:00: Tank 1 is emptying at 21.21 ft
   
    10:35:00: Balanced after 1 trials
   
    10:40:00: Balanced after 1 trials
   
    10:45:00: Balanced after 1 trials
   
    10:50:00: Balanced after 1 trials
   
    10:55:00: Balanced after 1 trials
   
    11:00:00: Balanced after 3 trials
    11:00:00: Tank 2 is emptying at 26.58 ft
   
    11:05:00: Balanced after 1 trials
   
    11:10:00: Balanced after 1 trials
   
    11:15:00: Balanced after 1 trials
   
    11:20:00: Balanced after 1 trials
   
    11:25:00: Balanced after 1 trials
   
    11:30:00: Balanced after 1 trials
   
    11:35:00: Balanced after 1 trials
   
    11:40:00: Balanced after 1 trials
   
    11:45:00: Balanced after 1 trials
   
    11:50:00: Balanced after 1 trials
   
    11:55:00: Balanced after 1 trials
   
    12:00:00: Balanced after 4 trials
    12:00:00: Tank 1 is filling at 20.72 ft
    12:00:00: Tank 2 is filling at 26.37 ft
   
    12:05:00: Balanced after 2 trials
   
    12:10:00: Balanced after 2 trials
   
    12:15:00: Balanced after 2 trials
   
    12:20:00: Balanced after 2 trials
   
    12:25:00: Balanced after 2 trials
   
    12:30:00: Balanced after 2 trials
   
    12:35:00: Balanced after 2 trials
   
    12:40:00: Balanced after 2 trials
   
    12:45:00: Balanced after 2 trials
   
    12:50:00: Balanced after 2 trials
   
    12:55:00: Balanced after 2 trials
   
    13:00:00: Balanced after 3 trials
   
    13:05:00: Balanced after 2 trials
   
    13:10:00: Balanced after 2 trials
   
    13:15:00: Balanced after 2 trials
   
    13:20:00: Balanced after 2 trials
   
    13:25:00: Balanced after 2 trials
   
    13:30:00: Balanced after 2 trials
   
    13:35:00: Balanced after 2 trials
   
    13:40:00: Balanced after 2 trials
   
    13:45:00: Balanced after 2 trials
   
    13:50:00: Balanced after 2 trials
   
    13:55:00: Balanced after 2 trials
   
    14:00:00: Balanced after 3 trials
    14:00:00: Tank 1 is emptying at 21.58 ft
   
    14:05:00: Balanced after 1 trials
   
    14:10:00: Balanced after 1 trials
   
    14:15:00: Balanced after 1 trials
   
    14:20:00: Balanced after 1 trials
   
    14:25:00: Balanced after 1 trials
   
    14:30:00: Balanced after 1 trials
   
    14:35:00: Balanced after 1 trials
   
    14:40:00: Balanced after 1 trials
   
    14:45:00: Balanced after 1 trials
   
    14:50:00: Balanced after 1 trials
   
    14:55:00: Balanced after 1 trials
   
    15:00:00: Pump 10 changed by timer control
    15:00:00: Balanced after 4 trials
    15:00:00: Reservoir Lake is closed
    15:00:00: Pump 10 changed from open to closed
   
    15:05:00: Balanced after 2 trials
   
    15:10:00: Balanced after 2 trials
   
    15:15:00: Balanced after 2 trials
   
    15:20:00: Balanced after 2 trials
   
    15:25:00: Balanced after 2 trials
   
    15:30:00: Balanced after 2 trials
   
    15:35:00: Balanced after 2 trials
   
    15:40:00: Balanced after 2 trials
   
    15:45:00: Balanced after 2 trials
   
    15:50:00: Balanced after 2 trials
   
    15:55:00: Balanced after 2 trials
   
    16:00:00: Balanced after 4 trials
   
    16:05:00: Balanced after 2 trials
   
    16:10:00: Balanced after 2 trials
   
    16:15:00: Balanced after 2 trials
   
    16:20:00: Balanced after 2 trials
   
    16:25:00: Balanced after 2 trials
   
    16:30:00: Balanced after 2 trials
   
    16:35:00: Balanced after 2 trials
   
    16:40:00: Balanced after 2 trials
   
    16:45:00: Balanced after 2 trials
   
    16:50:00: Balanced after 2 trials
   
    16:55:00: Balanced after 2 trials
   
    17:00:00: Balanced after 3 trials
    17:00:00: Tank 2 is emptying at 28.13 ft
   
    17:05:00: Balanced after 1 trials
   
    17:10:00: Balanced after 1 trials
   
    17:15:00: Balanced after 1 trials
   
    17:20:00: Balanced after 1 trials
   
    17:25:00: Balanced after 1 trials
   
    17:30:00: Balanced after 1 trials
   
    17:35:00: Balanced after 1 trials
   
    17:40:00: Balanced after 1 trials
   
    17:45:00: Balanced after 1 trials
   
    17:50:00: Balanced after 1 trials
   
    17:55:00: Balanced after 1 trials
   
    18:00:00: Balanced after 3 trials
   
    18:05:00: Balanced after 1 trials
   
    18:10:00: Balanced after 1 trials
   
    18:15:00: Balanced after 1 trials
   
    18:20:00: Balanced after 1 trials
   
    18:25:00: Balanced after 1 trials
   
    18:30:00: Balanced after 1 trials
   
    18:35:00: Balanced after 1 trials
   
    18:40:00: Balanced after 1 trials
   
    18:45:00: Balanced after 1 trials
   
    18:50:00: Balanced after 1 trials
   
    18:55:00: Balanced after 1 trials
   
    19:00:00: Balanced after 3 trials
   
    19:05:00: Balanced after 1 trials
   
    19:10:00: Balanced after 1 trials
   
    19:15:00: Balanced after 1 trials
   
    19:20:00: Balanced after 1 trials
   
    19:25:00: Balanced after 1 trials
   
    19:30:00: Balanced after 1 trials
   
    19:35:00: Balanced after 1 trials
   
    19:40:00: Balanced after 1 trials
   
    19:45:00: Balanced after 1 trials
   
    19:50:00: Balanced after 1 trials
   
    19:55:00: Balanced after 1 trials
   
    20:00:00: Balanced after 3 trials
    20:00:00: Tank 2 is filling at 26.56 ft
   
    20:05:00: Balanced after 2 trials
   
    20:10:00: Balanced after 2 trials
   
    20:15:00: Balanced after 2 trials
   
    20:20:00: Balanced after 2 trials
   
    20:25:00: Balanced after 2 trials
   
    20:30:00: Balanced after 2 trials
   
    20:35:00: Balanced after 2 trials
   
    20:40:00: Balanced after 2 trials
    20:40:00: Tank 2 is closed at 26.58 ft
   
    20:45:00: Balanced after 2 trials
    20:45:00: Tank 2 is emptying at 26.58 ft
   
    20:50:00: Balanced after 2 trials
   
    20:55:00: Balanced after 2 trials
   
    21:00:00: Balanced after 3 trials
   
    21:05:00: Balanced after 1 trials
   
    21:10:00: Balanced after 1 trials
   
    21:15:00: Balanced after 1 trials
   
    21:20:00: Balanced after 1 trials
   
    21:24:17: Pump 335 changed by Tank 1 control
    21:24:17: Pipe 330 changed by Tank 1 control
    21:24:17: Balanced after 5 trials
    21:24:17: Tank 1 is filling at 17.10 ft
    21:24:17: Tank 3 is filling at 29.44 ft
    21:24:17: Pipe 330 changed from open to closed
    21:24:17: Pump 335 changed from closed to open
   
    21:25:00: Balanced after 1 trials
   
    21:30:00: Balanced after 2 trials
   
    21:35:00: Balanced after 2 trials
   
    21:40:00: Balanced after 2 trials
   
    21:45:00: Balanced after 2 trials
   
    21:50:00: Balanced after 2 trials
   
    21:55:00: Balanced after 2 trials
   
    22:00:00: Balanced after 4 trials
    22:00:00: Tank 1 is emptying at 17.38 ft
   
    22:05:00: Balanced after 2 trials
   
    22:10:00: Balanced after 2 trials
   
    22:15:00: Balanced after 2 trials
   
    22:20:00: Balanced after 2 trials
   
    22:25:00: Balanced after 2 trials
   
    22:30:00: Balanced after 2 trials
   
    22:35:00: Balanced after 2 trials
   
    22:40:00: Balanced after 2 trials
   
    22:45:00: Balanced after 2 trials
   
    22:50:00: Balanced after 2 trials
   
    22:55:00: Balanced after 2 trials
   
    23:00:00: Balanced after 3 trials
   
    23:05:00: Balanced after 2 trials
   
    23:10:00: Balanced after 2 trials
   
    23:15:00: Balanced after 2 trials
   
    23:20:00: Balanced after 2 trials
   
    23:25:00: Balanced after 2 trials
   
    23:30:00: Balanced after 2 trials
   
    23:35:00: Balanced after 2 trials
   
    23:40:00: Balanced after 2 trials
   
    23:45:00: Balanced after 2 trials
   
    23:50:00: Balanced after 2 trials
   
    23:55:00: Balanced after 2 trials
   
    24:00:00: Balanced after 4 trials
    24:00:00: Tank 1 is filling at 15.39 ft
   
   
  Node Results at 0:00:00 hrs:
  --------------------------------------------------------
                     Demand      Head  Pressure  Chemical
  Node                  gpm        ft       psi      mg/L
  --------------------------------------------------------
  10                   0.00    144.80     -0.95      0.00
  15                 578.36    129.15     42.10      0.00
  20                   0.00    158.00     12.57      0.00
  35                1794.60    145.31     57.55      0.00
  40                   0.00    145.00      5.68      0.00
  50                   0.00    140.00     10.18      0.00
  60                   0.00    209.00     90.56      0.00
  601                  0.00    302.38    131.02      0.00
  61                   0.00    302.38    131.02      0.00
  101                269.73    144.80     44.54      0.00
  103                189.14    144.77     44.10      0.00
  105                192.23    146.16     50.98      0.00
  107                 77.59    146.16     53.80      0.00
  109                328.59    144.77     53.93      0.00
  111                201.55    145.52     58.72      0.00
  113                 28.41    145.59     62.22      0.00
  115                 73.98    146.31     57.33      0.00
  117                167.15    149.48     58.88      0.00
  119                250.10    157.28     67.28      0.00
  120                  0.00    154.76     67.06      0.00
  121                 59.11    160.80     70.54      0.00
  123                  0.00    165.26     66.84      0.00
  125                 64.75    160.25     64.67      0.00
  127                 25.08    158.68     44.49      0.00
  129                  0.00    158.67     46.65      0.00
  131                 60.71    158.65     66.14      0.00
  139                  8.36    153.37     53.02      0.00
  141                 13.99    149.62     63.10      0.00
  143                  8.80    140.08     62.65      0.00
  145                 39.23    150.65     64.85      0.00
  147                 12.14    151.46     57.61      0.00
  149                 38.44    151.80     58.84      0.00
  151                205.16    155.26     52.76      0.00
  153                 62.72    155.35     38.63      0.00
  157                 73.54    154.81     61.40      0.00
  159                 58.67    151.40     63.00      0.00
  161                 22.44    149.09     62.87      0.00
  163                 13.38    148.63     62.23      0.00
  164                  0.00    148.63     62.23      0.00
  166                  3.69    148.63     65.27      0.00
  167                 20.68    146.74     65.75      0.00
  169                  0.00    146.74     65.75      0.00
  171                 55.86    145.65     64.84      0.00
  173                  0.00    145.63     64.83      0.00
  177                 82.60    145.31     59.50      0.00
  179                  0.00    145.30     59.49      0.00
  181                  0.00    145.32     59.50      0.00
  183                  0.00    145.30     58.19      0.00
  184                  0.00    144.04     55.48      0.00
  185                 36.42    144.61     55.73      0.00
  187                  0.00    145.27     57.53      0.00
  189                153.25    145.60     61.36      0.00
  191                116.30    145.49     52.21      0.00
  193                101.26    145.59     55.29      0.00
  195                  0.00    145.67     56.40      0.00
  197                 24.20    145.49     53.08      0.00
  199                169.43    140.44     61.72      0.00
  201                 63.35    139.71     60.50      0.00
  203               4404.19    139.55     59.60      0.00
  204                  0.00    145.04     53.75      0.00
  205                 92.81    140.41     51.74      0.00
  206                  0.00    139.52     60.02      0.00
  207                 98.53    139.72     56.64      0.00
  208                  0.00    139.30     53.43      0.00
  209                  1.24    138.92     61.06      0.00
  211                 12.31    138.79     57.11      0.00
  213                 19.79    138.72     57.08      0.00
  215                130.91    138.51     56.98      0.00
  217                 34.39    138.49     57.41      0.00
  219                 58.67    138.47     58.27      0.00
  225                 32.38    138.48     56.54      0.00
  229                 91.14    138.64     55.52      0.00
  231                 23.40    138.63     57.90      0.00
  237                 22.17    138.77     54.06      0.00
  239                 63.35    138.77     54.50      0.00
  241                  0.00    138.77     54.50      0.00
  243                  6.16    138.77     54.06      0.00
  247                 99.94    138.78     52.33      0.00
  249                  0.00    138.78     52.33      0.00
  251                 34.31    138.80     47.14      0.00
  253                 77.42    138.99     44.62      0.00
  255                 57.35    139.04     48.55      0.00
  257                  0.00    151.52     58.29      0.00
  259                  0.00    151.07     54.63      0.00
  261                  0.00    149.43     64.75      0.00
  263                  0.00    149.26     64.68      0.00
  265                  0.00    147.34     63.84      0.00
  267                  0.00    145.65     54.01      0.00
  269                  0.00    146.04     63.28      0.00
  271                  0.00    145.41     60.41      0.00
  273                  0.00    140.41     57.37      0.00
  275                  0.00    139.72     56.21      0.00
  River           -13164.75    220.00      0.00      0.00  Reservoir
  Lake                 0.00    167.00      0.00      0.00  Reservoir
  1                  288.49    145.00      5.68      0.00  Tank
  2                 -381.20    140.00     10.18      0.00  Tank
  3                 2151.99    158.00     12.57      0.00  Tank
   
   
  Link Results at 0:00:00 hrs:
  ----------------------------------------------
                       Flow  Velocity  Headloss
  Link                  gpm       fps   /1000ft
  ----------------------------------------------
  20               -2151.99      0.09      0.00
  40                -288.49      0.01      0.00
  50                 381.20      0.02      0.00
  60               13164.75      9.34      8.94
  101                  0.00      0.00      0.00
  103                162.60      0.26      0.02
  105               -432.33      1.23      0.54
  107                 24.45      0.07      0.00
  109                -26.54      0.04      0.00
  111               -355.13      1.01      0.37
  112                493.45      1.40      0.69
  113               -111.05      0.32      0.04
  114                120.19      0.77      0.36
  115                -53.14      0.34      0.08
  116                -19.28      0.05      0.00
  117                649.00      1.84      1.14
  119               -740.76      2.10      1.45
  120               1183.32      3.36      3.46
  121               1059.30      3.01      2.82
  122                373.59      2.38      2.95
  123               9915.84      4.50      1.76
  125              13164.75      5.98      2.97
  129               2816.20      2.00      0.59
  131               2534.72      1.80      0.48
  133              -2151.99      2.20      0.87
  135                357.65      0.25      0.01
  137                 60.71      0.10      0.00
  145                296.94      1.90      1.93
  147                288.58      1.84      1.83
  149               -587.16      3.75      6.81
  151               -578.36      3.69      6.63
  153                312.57      0.89      0.29
  155                351.81      1.00      0.37
  159               -363.95      1.03      0.39
  161               -402.39      2.57      3.38
  163               -154.01      0.44      0.08
  169                216.73      1.38      1.08
  171                453.54      1.29      0.59
  173               8028.88      3.64      1.19
  175               7955.34      3.61      1.17
  177               7896.67      3.58      1.15
  179               7615.89      3.46      1.08
  180                  3.69      0.01      0.00
  181                  3.69      0.01      0.00
  183               7382.66      3.35      1.02
  185                -20.68      0.13      0.01
  186                328.12      2.09      2.32
  187               6730.79      3.06      0.86
  189               4675.16      2.12      0.44
  191              -1999.77      1.42      0.31
  193              -1794.60      1.27      0.26
  195                346.62      0.98      0.36
  197                264.02      0.75      0.22
  199                -24.47      0.07      0.00
  201               -288.49      0.82      0.25
  202                536.88      3.43      5.77
  203                245.19      1.56      1.35
  204                536.88      1.52      0.80
  205                328.12      0.93      0.32
  207                269.66      0.76      0.22
  209                167.42      1.07      0.67
  211                631.19      1.79      1.08
  213                160.70      0.46      0.09
  215                100.58      0.29      0.04
  217               -253.38      0.72      0.20
  219               -258.34      0.73      0.21
  221                258.34      1.65      1.49
  223                 23.61      0.07      0.00
  225                 47.81      0.14      0.01
  229               4675.16      3.32      1.30
  231               4389.82      3.11      1.15
  233               4404.19      3.12      1.35
  235                115.90      0.33      0.05
  237                449.73      1.28      0.58
  238                383.73      1.09      0.43
  239                 32.53      0.09      0.00
  240                383.73      1.09      0.43
  241                383.73      1.09      0.43
  243                382.49      0.61      0.11
  245                312.15      0.50      0.07
  247                256.35      0.41      0.05
  249                125.44      0.20      0.01
  251                 58.67      0.12      0.01
  257                 32.38      0.09      0.00
  261                 36.01      0.23      0.04
  263                 23.40      0.07      0.00
  269                 58.03      0.16      0.01
  271                 78.53      0.50      0.16
  273                -42.67      0.12      0.01
  275                -35.91      0.10      0.01
  277                  6.16      0.02      0.00
  281                -42.08      0.17      0.02
  283                -70.10      0.20      0.02
  285                 11.44      0.03      0.00
  287               -153.45      0.63      0.19
  289                381.20      1.56      1.03
  291                 77.42      0.32      0.05
  293                 92.97      0.59      0.22
  295                -58.67      0.17      0.01
  297                497.61      3.18      5.02
  299                239.08      1.53      1.29
  301                239.08      1.53      1.29
  303                258.53      1.65      1.49
  305                151.39      0.43      0.08
  307                409.92      1.16      0.49
  309                216.16      1.38      1.07
  311               -115.58      0.33      0.05
  313                489.75      1.39      0.68
  315              -2141.22      1.52      0.35
  317                110.25      0.70      0.31
  319                  5.65      0.02      0.00
  321               7598.82      3.45      1.07
  323                -77.71      0.22      0.02
  325                141.45      0.90      0.49
  329              13164.75      5.98      3.01
  330                  0.00      0.00      0.00
  333                 -0.00      0.00      0.00
  10                   0.00      0.00      0.00  Pump
  335              13164.75      0.00    -93.38  Pump
   
   
  Node Results at 0:05:00 hrs:
  --------------------------------------------------------
                     Demand      Head  Pressure  Chemical
  Node                  gpm        ft       psi      mg/L
  --------------------------------------------------------
  10                   0.00    144.83     -0.94      0.00
  15                 578.36    129.20     42.12      0.00
  20                   0.00    158.07     12.60      0.00
  35                1794.60    145.34     57.56      0.00
  40                   0.00    145.03      5.69      0.00
  50                   0.00    139.87     10.13      0.00
  60                   0.00    209.00     90.56      0.00
  601                  0.00    302.40    131.03      0.00
  61                   0.00    302.40    131.03      0.00
  101                269.73    144.83     44.56      0.00
  103                189.14    144.80     44.11      0.00
  105                192.23    146.19     51.00      0.00
  107                 77.59    146.19     53.81      0.00
  109                328.59    144.80     53.95      0.00
  111                201.55    145.55     58.73      0.00
  113                 28.41    145.62     62.23      0.00
  115                 73.98    146.34     57.35      0.00
  117                167.15    149.52     58.89      0.00
  119                250.10    157.33     67.30      0.00
  120                  0.00    154.80     67.07      0.00
  121                 59.11    160.85     70.56      0.00
  123                  0.00    165.31     66.86      0.00
  125                 64.75    160.31     64.69      0.00
  127                 25.08    158.75     44.52      0.00
  129                  0.00    158.73     46.68      0.00
  131                 60.71    158.71     66.17      0.00
  139                  8.36    153.43     53.05      0.00
  141                 13.99    149.67     63.12      0.00
  143                  8.80    140.14     62.67      0.00
  145                 39.23    150.71     64.87      0.00
  147                 12.14    151.51     57.63      0.00
  149                 38.44    151.85     58.87      0.00
  151                205.16    155.30     52.78      0.00
  153                 62.72    155.40     38.65      0.00
  157                 73.54    154.85     61.42      0.00
  159                 58.67    151.44     63.02      0.00
  161                 22.44    149.13     62.88      0.00
  163                 13.38    148.66     62.25      0.00
  164                  0.00    148.66     62.25      0.00
  166                  3.69    148.66     65.28      0.00
  167                 20.68    146.77     65.76      0.00
  169                  0.00    146.77     65.76      0.00
  171                 55.86    145.68     64.85      0.00
  173                  0.00    145.65     64.84      0.00
  177                 82.60    145.34     59.51      0.00
  179                  0.00    145.33     59.50      0.00
  181                  0.00    145.35     59.51      0.00
  183                  0.00    145.33     58.21      0.00
  184                  0.00    144.06     55.49      0.00
  185                 36.42    144.64     55.74      0.00
  187                  0.00    145.30     57.54      0.00
  189                153.25    145.63     61.37      0.00
  191                116.30    145.52     52.22      0.00
  193                101.26    145.62     55.30      0.00
  195                  0.00    145.70     56.41      0.00
  197                 24.20    145.52     53.09      0.00
  199                169.43    140.45     61.72      0.00
  201                 63.35    139.72     60.50      0.00
  203               4404.19    139.56     59.60      0.00
  204                  0.00    145.07     53.76      0.00
  205                 92.81    140.41     51.74      0.00
  206                  0.00    139.51     60.02      0.00
  207                 98.53    139.72     56.64      0.00
  208                  0.00    139.28     53.42      0.00
  209                  1.24    138.88     61.04      0.00
  211                 12.31    138.75     57.09      0.00
  213                 19.79    138.67     57.05      0.00
  215                130.91    138.46     56.96      0.00
  217                 34.39    138.44     57.39      0.00
  219                 58.67    138.42     58.25      0.00
  225                 32.38    138.43     56.52      0.00
  229                 91.14    138.58     55.50      0.00
  231                 23.40    138.58     57.88      0.00
  237                 22.17    138.71     54.04      0.00
  239                 63.35    138.71     54.47      0.00
  241                  0.00    138.71     54.47      0.00
  243                  6.16    138.71     54.04      0.00
  247                 99.94    138.72     52.31      0.00
  249                  0.00    138.72     52.31      0.00
  251                 34.31    138.74     47.12      0.00
  253                 77.42    138.90     44.59      0.00
  255                 57.35    138.96     48.51      0.00
  257                  0.00    151.56     58.30      0.00
  259                  0.00    151.11     54.64      0.00
  261                  0.00    149.47     64.77      0.00
  263                  0.00    149.30     64.69      0.00
  265                  0.00    147.37     63.86      0.00
  267                  0.00    145.68     54.02      0.00
  269                  0.00    146.07     63.29      0.00
  271                  0.00    145.44     60.42      0.00
  273                  0.00    140.41     57.38      0.00
  275                  0.00    139.72     56.21      0.00
  River           -13163.12    220.00      0.00      0.00  Reservoir
  Lake                 0.00    167.00      0.00      0.00  Reservoir
  1                  285.32    145.03      5.69      0.00  Tank
  2                 -370.53    139.87     10.13      0.00  Tank
  3                 2142.87    158.07     12.60      0.00  Tank
   
   
  Link Results at 0:05:00 hrs:
  ----------------------------------------------
                       Flow  Velocity  Headloss
  Link                  gpm       fps   /1000ft
  ----------------------------------------------
  20               -2142.87      0.09      0.00
  40                -285.32      0.01      0.00
  50                 370.53      0.02      0.00
  60               13163.12      9.34      8.93
  101                  0.00      0.00      0.00
  103                162.84      0.26      0.02
  105               -432.57      1.23      0.54
  107                 24.60      0.07      0.00
  109                -26.30      0.04      0.00
  111               -354.89      1.01      0.37
  112                493.98      1.40      0.69
  113               -110.75      0.31      0.04
  114                120.37      0.77      0.36
  115                -52.99      0.34      0.08
  116                -18.79      0.05      0.00
  117                649.39      1.84      1.14
  119               -741.32      2.10      1.46
  120               1184.02      3.36      3.47
  121               1059.95      3.01      2.82
  122                373.84      2.39      2.95
  123               9922.79      4.50      1.76
  125              13163.12      5.97      2.97
  129               2807.38      1.99      0.59
  131               2525.77      1.79      0.48
  133              -2142.87      2.19      0.86
  135                357.83      0.25      0.01
  137                 60.71      0.10      0.00
  145                297.12      1.90      1.93
  147                288.76      1.84      1.83
  149               -587.16      3.75      6.81
  151               -578.36      3.69      6.63
  153                312.39      0.89      0.29
  155                351.63      1.00      0.37
  159               -363.77      1.03      0.39
  161               -402.21      2.57      3.38
  163               -154.13      0.44      0.08
  169                216.85      1.38      1.08
  171                453.24      1.29      0.59
  173               8035.43      3.65      1.19
  175               7961.89      3.61      1.17
  177               7903.21      3.59      1.16
  179               7622.32      3.46      1.08
  180                  3.69      0.01      0.00
  181                  3.69      0.01      0.00
  183               7389.05      3.35      1.02
  185                -20.68      0.13      0.01
  186                328.87      2.10      2.33
  187               6737.11      3.06      0.86
  189               4684.55      2.13      0.44
  191              -1996.70      1.42      0.31
  193              -1794.60      1.27      0.26
  195                343.68      0.97      0.35
  197                261.07      0.74      0.21
  199                -24.24      0.07      0.00
  201               -285.32      0.81      0.25
  202                538.16      3.43      5.80
  203                245.72      1.57      1.36
  204                538.16      1.53      0.80
  205                328.87      0.93      0.32
  207                269.96      0.77      0.22
  209                167.60      1.07      0.67
  211                631.27      1.79      1.08
  213                161.27      0.46      0.09
  215                101.12      0.29      0.04
  217               -253.48      0.72      0.20
  219               -258.45      0.73      0.21
  221                258.45      1.65      1.49
  223                 24.09      0.07      0.00
  225                 48.28      0.14      0.01
  229               4684.55      3.32      1.30
  231               4397.98      3.12      1.16
  233               4404.19      3.12      1.35
  235                117.14      0.33      0.05
  237                451.98      1.28      0.58
  238                394.40      1.12      0.45
  239                 40.95      0.12      0.01
  240                394.40      1.12      0.45
  241                394.40      1.12      0.45
  243                393.16      0.63      0.11
  245                313.27      0.50      0.07
  247                256.35      0.41      0.05
  249                125.44      0.20      0.01
  251                 58.67      0.12      0.01
  257                 32.38      0.09      0.00
  261                 37.12      0.24      0.04
  263                 23.40      0.07      0.00
  269                 67.58      0.19      0.02
  271                 77.42      0.49      0.16
  273                -32.00      0.09      0.00
  275                -31.92      0.09      0.00
  277                  6.16      0.02      0.00
  281                -38.08      0.16      0.01
  283                -63.43      0.18      0.02
  285                  8.69      0.02      0.00
  287               -146.71      0.60      0.18
  289                370.53      1.51      0.98
  291                 77.42      0.32      0.05
  293                 89.05      0.57      0.21
  295                -54.74      0.16      0.01
  297                497.91      3.18      5.02
  299                239.23      1.53      1.29
  301                239.23      1.53      1.29
  303                258.69      1.65      1.49
  305                151.48      0.43      0.08
  307                410.16      1.16      0.49
  309                216.20      1.38      1.07
  311               -115.08      0.33      0.05
  313                489.69      1.39      0.68
  315              -2138.28      1.52      0.35
  317                110.51      0.71      0.31
  319                  6.63      0.02      0.00
  321               7605.25      3.45      1.08
  323                -69.56      0.20      0.02
  325                141.58      0.90      0.49
  329              13163.12      5.97      3.01
  330                  0.00      0.00      0.00
  333                 -0.00      0.00      0.00
  10                   0.00      0.00      0.00  Pump
  335              13163.12      0.00    -93.40  Pump
   
   
  Node Results at 0:10:00 hrs:
  --------------------------------------------------------
                     Demand      Head  Pressure  Chemical
  Node                  gpm        ft       psi      mg/L
  --------------------------------------------------------
  10                   0.00    144.86     -0.93      0.00
  15                 578.36    129.26     42.14      0.00
  20                   0.00    158.14     12.62      0.00
  35                1794.60    145.37     57.57      0.00
  40                   0.00    145.07      5.71      0.00
  50                   0.00    139.74     10.07      0.00
  60                   0.00    209.01     90.56      0.00
  601                  0.00    302.42    131.04      0.00
  61                   0.00    302.42    131.04      0.00
  101                269.73    144.86     44.57      0.00
  103                189.14    144.83     44.12      0.00
  105                192.23    146.23     51.01      0.00
  107                 77.59    146.22     53.83      0.00
  109                328.59    144.84     53.96      0.00
  111                201.55    145.58     58.75      0.00
  113                 28.41    145.65     62.24      0.00
  115                 73.98    146.38     57.36      0.00
  117                167.15    149.55     58.91      0.00
  119                250.10    157.37     67.32      0.00
  120                  0.00    154.84     67.09      0.00
  121                 59.11    160.90     70.58      0.00
  123                  0.00    165.36     66.88      0.00
  125                 64.75    160.36     64.72      0.00
  127                 25.08    158.81     44.55      0.00
  129                  0.00    158.80     46.71      0.00
  131                 60.71    158.77     66.20      0.00
  139                  8.36    153.48     53.07      0.00
  141                 13.99    149.73     63.14      0.00
  143                  8.80    140.19     62.69      0.00
  145                 39.23    150.76     64.89      0.00
  147                 12.14    151.56     57.66      0.00
  149                 38.44    151.90     58.89      0.00
  151                205.16    155.35     52.80      0.00
  153                 62.72    155.44     38.67      0.00
  157                 73.54    154.89     61.44      0.00
  159                 58.67    151.47     63.03      0.00
  161                 22.44    149.16     62.90      0.00
  163                 13.38    148.69     62.26      0.00
  164                  0.00    148.69     62.26      0.00
  166                  3.69    148.69     65.30      0.00
  167                 20.68    146.80     65.77      0.00
  169                  0.00    146.80     65.77      0.00
  171                 55.86    145.70     64.87      0.00
  173                  0.00    145.68     64.86      0.00
  177                 82.60    145.36     59.52      0.00
  179                  0.00    145.36     59.52      0.00
  181                  0.00    145.37     59.52      0.00
  183                  0.00    145.36     58.22      0.00
  184                  0.00    144.08     55.50      0.00
  185                 36.42    144.66     55.75      0.00
  187                  0.00    145.33     57.55      0.00
  189                153.25    145.66     61.38      0.00
  191                116.30    145.55     52.23      0.00
  193                101.26    145.65     55.31      0.00
  195                  0.00    145.73     56.43      0.00
  197                 24.20    145.55     53.10      0.00
  199                169.43    140.46     61.73      0.00
  201                 63.35    139.72     60.50      0.00
  203               4404.19    139.56     59.61      0.00
  204                  0.00    145.09     53.77      0.00
  205                 92.81    140.42     51.75      0.00
  206                  0.00    139.50     60.01      0.00
  207                 98.53    139.72     56.64      0.00
  208                  0.00    139.26     53.41      0.00
  209                  1.24    138.84     61.03      0.00
  211                 12.31    138.70     57.07      0.00
  213                 19.79    138.63     57.03      0.00
  215                130.91    138.41     56.94      0.00
  217                 34.39    138.39     57.36      0.00
  219                 58.67    138.38     58.23      0.00
  225                 32.38    138.38     56.49      0.00
  229                 91.14    138.53     55.48      0.00
  231                 23.40    138.53     57.86      0.00
  237                 22.17    138.65     54.01      0.00
  239                 63.35    138.65     54.45      0.00
  241                  0.00    138.65     54.45      0.00
  243                  6.16    138.65     54.01      0.00
  247                 99.94    138.66     52.28      0.00
  249                  0.00    138.66     52.28      0.00
  251                 34.31    138.67     47.09      0.00
  253                 77.42    138.83     44.55      0.00
  255                 57.35    138.88     48.48      0.00
  257                  0.00    151.60     58.32      0.00
  259                  0.00    151.15     54.66      0.00
  261                  0.00    149.51     64.78      0.00
  263                  0.00    149.33     64.71      0.00
  265                  0.00    147.40     63.87      0.00
  267                  0.00    145.71     54.04      0.00
  269                  0.00    146.10     63.30      0.00
  271                  0.00    145.47     60.43      0.00
  273                  0.00    140.42     57.38      0.00
  275                  0.00    139.73     56.21      0.00
  River           -13161.50    220.00      0.00      0.00  Reservoir
  Lake                 0.00    167.00      0.00      0.00  Reservoir
  1                  282.33    145.07      5.71      0.00  Tank
  2                 -360.11    139.74     10.07      0.00  Tank
  3                 2133.81    158.14     12.62      0.00  Tank
   
   
  Link Results at 0:10:00 hrs:
  ----------------------------------------------
                       Flow  Velocity  Headloss
  Link                  gpm       fps   /1000ft
  ----------------------------------------------
  20               -2133.81      0.09      0.00
  40                -282.33      0.01      0.00
  50                 360.11      0.02      0.00
  60               13161.50      9.33      8.93
  101                  0.00      0.00      0.00
  103                163.08      0.26      0.02
  105               -432.81      1.23      0.54
  107                 24.74      0.07      0.00
  109                -26.07      0.04      0.00
  111               -354.65      1.01      0.37
  112                494.52      1.40      0.69
  113               -110.44      0.31      0.04
  114                120.54      0.77      0.36
  115                -52.85      0.34      0.08
  116                -18.31      0.05      0.00
  117                649.77      1.84      1.14
  119               -741.89      2.10      1.46
  120               1184.72      3.36      3.47
  121               1060.59      3.01      2.83
  122                374.08      2.39      2.96
  123               9929.68      4.51      1.76
  125              13161.50      5.97      2.97
  129               2798.62      1.98      0.58
  131               2516.89      1.78      0.48
  133              -2133.81      2.18      0.86
  135                358.01      0.25      0.01
  137                 60.71      0.10      0.00
  145                297.30      1.90      1.93
  147                288.94      1.84      1.83
  149               -587.16      3.75      6.81
  151               -578.36      3.69      6.63
  153                312.21      0.89      0.29
  155                351.45      1.00      0.37
  159               -363.59      1.03      0.39
  161               -402.03      2.57      3.38
  163               -154.25      0.44      0.08
  169                216.97      1.38      1.08
  171                452.94      1.28      0.58
  173               8041.91      3.65      1.19
  175               7968.37      3.62      1.17
  177               7909.70      3.59      1.16
  179               7628.69      3.46      1.08
  180                  3.69      0.01      0.00
  181                  3.69      0.01      0.00
  183               7395.38      3.36      1.02
  185                -20.68      0.13      0.01
  186                329.60      2.10      2.34
  187               6743.36      3.06      0.86
  189               4693.72      2.13      0.44
  191              -1993.78      1.41      0.31
  193              -1794.60      1.27      0.26
  195                340.88      0.97      0.35
  197                258.28      0.73      0.21
  199                -24.05      0.07      0.00
  201               -282.33      0.80      0.24
  202                539.41      3.44      5.82
  203                246.23      1.57      1.36
  204                539.41      1.53      0.81
  205                329.60      0.94      0.32
  207                270.28      0.77      0.22
  209                167.77      1.07      0.67
  211                631.35      1.79      1.08
  213                161.83      0.46      0.09
  215                101.66      0.29      0.04
  217               -253.58      0.72      0.20
  219               -258.57      0.73      0.21
  221                258.57      1.65      1.49
  223                 24.55      0.07      0.00
  225                 48.75      0.14      0.01
  229               4693.72      3.33      1.31
  231               4405.85      3.12      1.16
  233               4404.19      3.12      1.35
  235                118.44      0.34      0.05
  237                454.28      1.29      0.59
  238                404.82      1.15      0.47
  239                 49.07      0.14      0.01
  240                404.82      1.15      0.47
  241                404.82      1.15      0.47
  243                403.58      0.64      0.12
  245                314.47      0.50      0.07
  247                256.35      0.41      0.05
  249                125.44      0.20      0.01
  251                 58.67      0.12      0.01
  257                 32.38      0.09      0.00
  261                 38.32      0.24      0.04
  263                 23.40      0.07      0.00
  269                 76.80      0.22      0.02
  271                 76.22      0.49      0.16
  273                -21.58      0.06      0.00
  275                -28.02      0.08      0.00
  277                  6.16      0.02      0.00
  281                -34.18      0.14      0.01
  283                -56.91      0.16      0.01
  285                  6.00      0.02      0.00
  287               -140.12      0.57      0.16
  289                360.11      1.47      0.93
  291                 77.42      0.32      0.05
  293                 85.22      0.54      0.19
  295                -50.91      0.14      0.01
  297                498.22      3.18      5.03
  299                239.37      1.53      1.29
  301                239.37      1.53      1.29
  303                258.84      1.65      1.49
  305                151.56      0.43      0.08
  307                410.40      1.16      0.49
  309                216.24      1.38      1.07
  311               -114.58      0.33      0.05
  313                489.64      1.39      0.68
  315              -2135.48      1.51      0.35
  317                110.75      0.71      0.31
  319                  7.68      0.02      0.00
  321               7611.63      3.45      1.08
  323                -61.68      0.17      0.01
  325                141.71      0.90      0.49
  329              13161.50      5.97      3.01
  330                  0.00      0.00      0.00
  333                 -0.00      0.00      0.00
  10                   0.00      0.00      0.00  Pump
  335              13161.50      0.00    -93.41  Pump
   
   
  Node Results at 0:15:00 hrs:
  --------------------------------------------------------
                     Demand      Head  Pressure  Chemical
  Node                  gpm        ft       psi      mg/L
  --------------------------------------------------------
  10                   0.00    144.89     -0.91      0.00
  15                 578.36    129.31     42.16      0.00
  20                   0.00    158.20     12.65      0.00
  35                1794.60    145.39     57.58      0.00
  40                   0.00    145.10      5.72      0.00
  50                   0.00    139.62     10.02      0.00
  60                   0.00    209.01     90.56      0.00
  601                  0.00    302.43    131.04      0.00
  61                   0.00    302.43    131.04      0.00
  101                269.73    144.89     44.58      0.00
  103                189.14    144.86     44.14      0.00
  105                192.23    146.26     51.02      0.00
  107                 77.59    146.25     53.84      0.00
  109                328.59    144.87     53.97      0.00
  111                201.55    145.61     58.76      0.00
  113                 28.41    145.68     62.26      0.00
  115                 73.98    146.41     57.37      0.00
  117                167.15    149.59     58.92      0.00
  119                250.10    157.42     67.34      0.00
  120                  0.00    154.88     67.11      0.00
  121                 59.11    160.95     70.61      0.00
  123                  0.00    165.41     66.91      0.00
  125                 64.75    160.41     64.74      0.00
  127                 25.08    158.87     44.57      0.00
  129                  0.00    158.86     46.74      0.00
  131                 60.71    158.84     66.22      0.00
  139                  8.36    153.54     53.10      0.00
  141                 13.99    149.78     63.17      0.00
  143                  8.80    140.24     62.72      0.00
  145                 39.23    150.81     64.91      0.00
  147                 12.14    151.61     57.68      0.00
  149                 38.44    151.95     58.91      0.00
  151                205.16    155.40     52.82      0.00
  153                 62.72    155.49     38.69      0.00
  157                 73.54    154.93     61.46      0.00
  159                 58.67    151.51     63.05      0.00
  161                 22.44    149.19     62.91      0.00
  163                 13.38    148.72     62.28      0.00
  164                  0.00    148.72     62.28      0.00
  166                  3.69    148.72     65.31      0.00
  167                 20.68    146.82     65.79      0.00
  169                  0.00    146.82     65.79      0.00
  171                 55.86    145.73     64.88      0.00
  173                  0.00    145.71     64.87      0.00
  177                 82.60    145.39     59.53      0.00
  179                  0.00    145.39     59.53      0.00
  181                  0.00    145.40     59.54      0.00
  183                  0.00    145.39     58.23      0.00
  184                  0.00    144.10     55.51      0.00
  185                 36.42    144.69     55.76      0.00
  187                  0.00    145.35     57.57      0.00
  189                153.25    145.69     61.39      0.00
  191                116.30    145.58     52.25      0.00
  193                101.26    145.68     55.32      0.00
  195                  0.00    145.76     56.44      0.00
  197                 24.20    145.58     53.11      0.00
  199                169.43    140.46     61.73      0.00
  201                 63.35    139.73     60.50      0.00
  203               4404.19    139.57     59.61      0.00
  204                  0.00    145.12     53.78      0.00
  205                 92.81    140.43     51.75      0.00
  206                  0.00    139.49     60.01      0.00
  207                 98.53    139.72     56.64      0.00
  208                  0.00    139.24     53.40      0.00
  209                  1.24    138.80     61.01      0.00
  211                 12.31    138.65     57.04      0.00
  213                 19.79    138.58     57.01      0.00
  215                130.91    138.36     56.92      0.00
  217                 34.39    138.34     57.34      0.00
  219                 58.67    138.33     58.20      0.00
  225                 32.38    138.33     56.47      0.00
  229                 91.14    138.48     55.45      0.00
  231                 23.40    138.47     57.83      0.00
  237                 22.17    138.60     53.99      0.00
  239                 63.35    138.60     54.42      0.00
  241                  0.00    138.60     54.42      0.00
  243                  6.16    138.60     53.99      0.00
  247                 99.94    138.60     52.26      0.00
  249                  0.00    138.60     52.26      0.00
  251                 34.31    138.61     47.06      0.00
  253                 77.42    138.75     44.52      0.00
  255                 57.35    138.81     48.45      0.00
  257                  0.00    151.64     58.34      0.00
  259                  0.00    151.18     54.68      0.00
  261                  0.00    149.54     64.80      0.00
  263                  0.00    149.37     64.72      0.00
  265                  0.00    147.43     63.88      0.00
  267                  0.00    145.74     54.05      0.00
  269                  0.00    146.13     63.32      0.00
  271                  0.00    145.49     60.44      0.00
  273                  0.00    140.43     57.38      0.00
  275                  0.00    139.73     56.21      0.00
  River           -13159.87    220.00      0.00      0.00  Reservoir
  Lake                 0.00    167.00      0.00      0.00  Reservoir
  1                  279.51    145.10      5.72      0.00  Tank
  2                 -349.92    139.62     10.02      0.00  Tank
  3                 2124.81    158.20     12.65      0.00  Tank
   
   
  Link Results at 0:15:00 hrs:
  ----------------------------------------------
                       Flow  Velocity  Headloss
  Link                  gpm       fps   /1000ft
  ----------------------------------------------
  20               -2124.81      0.09      0.00
  40                -279.51      0.01      0.00
  50                 349.92      0.01      0.00
  60               13159.87      9.33      8.93
  101                  0.00      0.00      0.00
  103                163.31      0.26      0.02
  105               -433.04      1.23      0.54
  107                 24.89      0.07      0.00
  109                -25.83      0.04      0.00
  111               -354.42      1.01      0.37
  112                495.04      1.40      0.69
  113               -110.14      0.31      0.04
  114                120.72      0.77      0.36
  115                -52.70      0.34      0.08
  116                -17.83      0.05      0.00
  117                650.15      1.84      1.14
  119               -742.44      2.11      1.46
  120               1185.42      3.36      3.47
  121               1061.23      3.01      2.83
  122                374.32      2.39      2.96
  123               9936.51      4.51      1.77
  125              13159.87      5.97      2.97
  129               2789.92      1.98      0.58
  131               2508.08      1.78      0.48
  133              -2124.81      2.17      0.85
  135                358.19      0.25      0.01
  137                 60.71      0.10      0.00
  145                297.48      1.90      1.93
  147                289.12      1.85      1.83
  149               -587.16      3.75      6.81
  151               -578.36      3.69      6.63
  153                312.03      0.89      0.29
  155                351.27      1.00      0.37
  159               -363.41      1.03      0.39
  161               -401.85      2.56      3.38
  163               -154.37      0.44      0.08
  169                217.09      1.39      1.08
  171                452.64      1.28      0.58
  173               8048.35      3.65      1.20
  175               7974.81      3.62      1.18
  177               7916.13      3.59      1.16
  179               7635.01      3.47      1.08
  180                  3.69      0.01      0.00
  181                  3.69      0.01      0.00
  183               7401.66      3.36      1.02
  185                -20.68      0.13      0.01
  186                330.32      2.11      2.35
  187               6749.56      3.06      0.86
  189               4702.69      2.13      0.44
  191              -1991.00      1.41      0.31
  193              -1794.60      1.27      0.26
  195                338.24      0.96      0.34
  197                255.64      0.73      0.20
  199                -23.87      0.07      0.00
  201               -279.51      0.79      0.24
  202                540.63      3.45      5.85
  203                246.74      1.57      1.37
  204                540.63      1.53      0.81
  205                330.32      0.94      0.33
  207                270.61      0.77      0.23
  209                167.93      1.07      0.67
  211                631.43      1.79      1.08
  213                162.39      0.46      0.09
  215                102.20      0.29      0.04
  217               -253.68      0.72      0.20
  219               -258.68      0.73      0.21
  221                258.68      1.65      1.49
  223                 25.01      0.07      0.00
  225                 49.21      0.14      0.01
  229               4702.69      3.34      1.31
  231               4413.47      3.13      1.17
  233               4404.19      3.12      1.35
  235                119.79      0.34      0.05
  237                456.64      1.30      0.59
  238                415.01      1.18      0.50
  239                 56.90      0.16      0.01
  240                415.01      1.18      0.50
  241                415.01      1.18      0.50
  243                413.77      0.66      0.12
  245                315.74      0.50      0.07
  247                256.35      0.41      0.05
  249                125.44      0.20      0.01
  251                 58.67      0.12      0.01
  257                 32.38      0.09      0.00
  261                 39.59      0.25      0.05
  263                 23.40      0.07      0.00
  269                 85.72      0.24      0.03
  271                 74.94      0.48      0.15
  273                -11.39      0.03      0.00
  275                -24.20      0.07      0.00
  277                  6.16      0.02      0.00
  281                -30.37      0.12      0.01
  283                -50.53      0.14      0.01
  285                  3.38      0.01      0.00
  287               -133.68      0.55      0.15
  289                349.92      1.43      0.88
  291                 77.42      0.32      0.05
  293                 81.46      0.52      0.18
  295                -47.16      0.13      0.01
  297                498.52      3.18      5.03
  299                239.52      1.53      1.29
  301                239.52      1.53      1.29
  303                259.00      1.65      1.50
  305                151.64      0.43      0.08
  307                410.64      1.16      0.49
  309                216.28      1.38      1.07
  311               -114.09      0.32      0.05
  313                489.59      1.39      0.68
  315              -2132.84      1.51      0.35
  317                110.97      0.71      0.31
  319                  8.82      0.03      0.00
  321               7617.94      3.46      1.08
  323                -54.07      0.15      0.01
  325                141.84      0.91      0.49
  329              13159.87      5.97      3.01
  330                  0.00      0.00      0.00
  333                 -0.00      0.00      0.00
  10                   0.00      0.00      0.00  Pump
  335              13159.88      0.00    -93.43  Pump
   
   
  Node Results at 0:20:00 hrs:
  --------------------------------------------------------
                     Demand      Head  Pressure  Chemical
  Node                  gpm        ft       psi      mg/L
  --------------------------------------------------------
  10                   0.00    144.92     -0.90      0.00
  15                 578.36    129.36     42.19      0.00
  20                   0.00    158.27     12.68      0.00
  35                1794.60    145.42     57.59      0.00
  40                   0.00    145.13      5.73      0.00
  50                   0.00    139.50      9.97      0.00
  60                   0.00    209.01     90.56      0.00
  601                  0.00    302.45    131.05      0.00
  61                   0.00    302.45    131.05      0.00
  101                269.73    144.92     44.60      0.00
  103                189.14    144.89     44.15      0.00
  105                192.23    146.29     51.04      0.00
  107                 77.59    146.29     53.85      0.00
  109                328.59    144.90     53.99      0.00
  111                201.55    145.64     58.77      0.00
  113                 28.41    145.71     62.27      0.00
  115                 73.98    146.44     57.39      0.00
  117                167.15    149.63     58.94      0.00
  119                250.10    157.46     67.36      0.00
  120                  0.00    154.92     67.13      0.00
  121                 59.11    161.00     70.63      0.00
  123                  0.00    165.46     66.93      0.00
  125                 64.75    160.46     64.76      0.00
  127                 25.08    158.93     44.60      0.00
  129                  0.00    158.92     46.76      0.00
  131                 60.71    158.90     66.25      0.00
  139                  8.36    153.60     53.12      0.00
  141                 13.99    149.83     63.19      0.00
  143                  8.80    140.29     62.74      0.00
  145                 39.23    150.86     64.93      0.00
  147                 12.14    151.66     57.70      0.00
  149                 38.44    152.00     58.93      0.00
  151                205.16    155.44     52.84      0.00
  153                 62.72    155.54     38.71      0.00
  157                 73.54    154.97     61.47      0.00
  159                 58.67    151.55     63.07      0.00
  161                 22.44    149.22     62.93      0.00
  163                 13.38    148.76     62.29      0.00
  164                  0.00    148.76     62.29      0.00
  166                  3.69    148.76     65.32      0.00
  167                 20.68    146.85     65.80      0.00
  169                  0.00    146.85     65.80      0.00
  171                 55.86    145.76     64.89      0.00
  173                  0.00    145.73     64.88      0.00
  177                 82.60    145.42     59.54      0.00
  179                  0.00    145.41     59.54      0.00
  181                  0.00    145.43     59.55      0.00
  183                  0.00    145.41     58.24      0.00
  184                  0.00    144.13     55.52      0.00
  185                 36.42    144.71     55.77      0.00
  187                  0.00    145.38     57.58      0.00
  189                153.25    145.72     61.41      0.00
  191                116.30    145.61     52.26      0.00
  193                101.26    145.71     55.34      0.00
  195                  0.00    145.79     56.45      0.00
  197                 24.20    145.61     53.13      0.00
  199                169.43    140.47     61.73      0.00
  201                 63.35    139.74     60.50      0.00
  203               4404.19    139.58     59.61      0.00
  204                  0.00    145.15     53.79      0.00
  205                 92.81    140.44     51.75      0.00
  206                  0.00    139.48     60.00      0.00
  207                 98.53    139.72     56.64      0.00
  208                  0.00    139.22     53.39      0.00
  209                  1.24    138.76     60.99      0.00
  211                 12.31    138.60     57.02      0.00
  213                 19.79    138.53     56.99      0.00
  215                130.91    138.32     56.90      0.00
  217                 34.39    138.29     57.32      0.00
  219                 58.67    138.28     58.18      0.00
  225                 32.38    138.29     56.45      0.00
  229                 91.14    138.42     55.43      0.00
  231                 23.40    138.42     57.81      0.00
  237                 22.17    138.54     53.96      0.00
  239                 63.35    138.54     54.40      0.00
  241                  0.00    138.54     54.40      0.00
  243                  6.16    138.54     53.96      0.00
  247                 99.94    138.54     52.23      0.00
  249                  0.00    138.54     52.23      0.00
  251                 34.31    138.55     47.04      0.00
  253                 77.42    138.67     44.49      0.00
  255                 57.35    138.73     48.41      0.00
  257                  0.00    151.67     58.35      0.00
  259                  0.00    151.22     54.69      0.00
  261                  0.00    149.58     64.81      0.00
  263                  0.00    149.41     64.74      0.00
  265                  0.00    147.46     63.89      0.00
  267                  0.00    145.76     54.06      0.00
  269                  0.00    146.15     63.33      0.00
  271                  0.00    145.52     60.45      0.00
  273                  0.00    140.44     57.38      0.00
  275                  0.00    139.74     56.22      0.00
  River           -13158.25    220.00      0.00      0.00  Reservoir
  Lake                 0.00    167.00      0.00      0.00  Reservoir
  1                  276.85    145.13      5.73      0.00  Tank
  2                 -339.95    139.50      9.97      0.00  Tank
  3                 2115.88    158.27     12.68      0.00  Tank
   
   
  Link Results at 0:20:00 hrs:
  ----------------------------------------------
                       Flow  Velocity  Headloss
  Link                  gpm       fps   /1000ft
  ----------------------------------------------
  20               -2115.88      0.09      0.00
  40                -276.85      0.01      0.00
  50                 339.95      0.01      0.00
  60               13158.25      9.33      8.93
  101                  0.00      0.00      0.00
  103                163.55      0.26      0.02
  105               -433.27      1.23      0.54
  107                 25.03      0.07      0.00
  109                -25.60      0.04      0.00
  111               -354.19      1.00      0.37
  112                495.57      1.41      0.69
  113               -109.83      0.31      0.04
  114                120.89      0.77      0.36
  115                -52.56      0.34      0.08
  116                -17.35      0.05      0.00
  117                650.53      1.85      1.14
  119               -743.00      2.11      1.46
  120               1186.11      3.36      3.48
  121               1061.86      3.01      2.83
  122                374.56      2.39      2.96
  123               9943.29      4.51      1.77
  125              13158.25      5.97      2.97
  129               2781.29      1.97      0.58
  131               2499.32      1.77      0.47
  133              -2115.88      2.16      0.84
  135                358.36      0.25      0.01
  137                 60.71      0.10      0.00
  145                297.66      1.90      1.94
  147                289.29      1.85      1.84
  149               -587.16      3.75      6.81
  151               -578.36      3.69      6.63
  153                311.86      0.88      0.29
  155                351.09      1.00      0.36
  159               -363.23      1.03      0.39
  161               -401.67      2.56      3.37
  163               -154.49      0.44      0.08
  169                217.21      1.39      1.08
  171                452.34      1.28      0.58
  173               8054.73      3.66      1.20
  175               7981.18      3.62      1.18
  177               7922.51      3.60      1.16
  179               7641.28      3.47      1.09
  180                  3.69      0.01      0.00
  181                  3.69      0.01      0.00
  183               7407.88      3.36      1.03
  185                -20.68      0.13      0.01
  186                331.03      2.11      2.36
  187               6755.69      3.07      0.86
  189               4711.46      2.14      0.44
  191              -1988.36      1.41      0.31
  193              -1794.60      1.27      0.26
  195                335.73      0.95      0.34
  197                253.13      0.72      0.20
  199                -23.72      0.07      0.00
  201               -276.85      0.79      0.23
  202                541.83      3.46      5.87
  203                247.22      1.58      1.37
  204                541.83      1.54      0.81
  205                331.03      0.94      0.33
  207                270.95      0.77      0.23
  209                168.10      1.07      0.67
  211                631.52      1.79      1.08
  213                162.93      0.46      0.09
  215                102.74      0.29      0.04
  217               -253.77      0.72      0.20
  219               -258.80      0.73      0.21
  221                258.80      1.65      1.49
  223                 25.46      0.07      0.00
  225                 49.66      0.14      0.01
  229               4711.46      3.34      1.32
  231               4420.85      3.14      1.17
  233               4404.19      3.12      1.35
  235                121.18      0.34      0.05
  237                459.03      1.30      0.60
  238                424.98      1.21      0.52
  239                 64.48      0.18      0.02
  240                424.98      1.21      0.52
  241                424.98      1.21      0.52
  243                423.74      0.68      0.13
  245                317.07      0.51      0.07
  247                256.35      0.41      0.05
  249                125.44      0.20      0.01
  251                 58.67      0.12      0.01
  257                 32.38      0.09      0.00
  261                 40.92      0.26      0.05
  263                 23.40      0.07      0.00
  269                 94.36      0.27      0.03
  271                 73.62      0.47      0.15
  273                 -1.42      0.00      0.00
  275                -20.47      0.06      0.00
  277                  6.16      0.02      0.00
  281                -26.63      0.11      0.01
  283                -44.29      0.13      0.01
  285                  0.81      0.00      0.00
  287               -127.38      0.52      0.14
  289                339.95      1.39      0.84
  291                 77.42      0.32      0.05
  293                 77.79      0.50      0.16
  295                -43.48      0.12      0.01
  297                498.81      3.18      5.04
  299                239.66      1.53      1.30
  301                239.66      1.53      1.30
  303                259.15      1.65      1.50
  305                151.72      0.43      0.08
  307                410.87      1.17      0.49
  309                216.32      1.38      1.07
  311               -113.59      0.32      0.05
  313                489.55      1.39      0.68
  315              -2130.33      1.51      0.35
  317                111.17      0.71      0.31
  319                 10.01      0.03      0.00
  321               7624.21      3.46      1.08
  323                -46.69      0.13      0.01
  325                141.97      0.91      0.49
  329              13158.25      5.97      3.01
  330                  0.00      0.00      0.00
  333                 -0.00      0.00      0.00
  10                   0.00      0.00      0.00  Pump
  335              13158.25      0.00    -93.44  Pump
   
   
  Node Results at 0:25:00 hrs:
  --------------------------------------------------------
                     Demand      Head  Pressure  Chemical
  Node                  gpm        ft       psi      mg/L
  --------------------------------------------------------
  10                   0.00    144.95     -0.89      0.00
  15                 578.36    129.41     42.21      0.00
  20                   0.00    158.34     12.71      0.00
  35                1794.60    145.45     57.61      0.00
  40                   0.00    145.17      5.75      0.00
  50                   0.00    139.39      9.92      0.00
  60                   0.00    209.01     90.57      0.00
  601                  0.00    302.47    131.06      0.00
  61                   0.00    302.47    131.06      0.00
  101                269.73    144.95     44.61      0.00
  103                189.14    144.93     44.16      0.00
  105                192.23    146.32     51.05      0.00
  107                 77.59    146.32     53.87      0.00
  109                328.59    144.93     54.00      0.00
  111                201.55    145.67     58.79      0.00
  113                 28.41    145.74     62.28      0.00
  115                 73.98    146.47     57.40      0.00
  117                167.15    149.66     58.96      0.00
  119                250.10    157.51     67.38      0.00
  120                  0.00    154.97     67.15      0.00
  121                 59.11    161.05     70.65      0.00
  123                  0.00    165.50     66.95      0.00
  125                 64.75    160.52     64.79      0.00
  127                 25.08    158.99     44.63      0.00
  129                  0.00    158.98     46.79      0.00
  131                 60.71    158.96     66.28      0.00
  139                  8.36    153.65     53.15      0.00
  141                 13.99    149.88     63.21      0.00
  143                  8.80    140.34     62.76      0.00
  145                 39.23    150.91     64.96      0.00
  147                 12.14    151.71     57.72      0.00
  149                 38.44    152.05     58.95      0.00
  151                205.16    155.49     52.86      0.00
  153                 62.72    155.58     38.73      0.00
  157                 73.54    155.01     61.49      0.00
  159                 58.67    151.58     63.08      0.00
  161                 22.44    149.26     62.94      0.00
  163                 13.38    148.79     62.30      0.00
  164                  0.00    148.79     62.30      0.00
  166                  3.69    148.79     65.34      0.00
  167                 20.68    146.88     65.81      0.00
  169                  0.00    146.88     65.81      0.00
  171                 55.86    145.78     64.90      0.00
  173                  0.00    145.76     64.89      0.00
  177                 82.60    145.45     59.56      0.00
  179                  0.00    145.44     59.55      0.00
  181                  0.00    145.46     59.56      0.00
  183                  0.00    145.44     58.25      0.00
  184                  0.00    144.15     55.53      0.00
  185                 36.42    144.74     55.78      0.00
  187                  0.00    145.41     57.59      0.00
  189                153.25    145.75     61.42      0.00
  191                116.30    145.64     52.27      0.00
  193                101.26    145.74     55.35      0.00
  195                  0.00    145.82     56.47      0.00
  197                 24.20    145.64     53.14      0.00
  199                169.43    140.48     61.74      0.00
  201                 63.35    139.74     60.51      0.00
  203               4404.19    139.58     59.61      0.00
  204                  0.00    145.17     53.80      0.00
  205                 92.81    140.44     51.76      0.00
[...]
  219                 69.42    136.97     57.61      0.00
  225                 38.30    136.97     55.88      0.00
  229                107.82    137.19     54.89      0.00
  231                 27.69    137.18     57.27      0.00
  237                 26.22    137.36     53.45      0.00
  239                 74.94    137.37     53.89      0.00
  241                  0.00    137.37     53.89      0.00
  243                  7.29    137.37     53.45      0.00
  247                118.24    137.38     51.73      0.00
  249                  0.00    137.38     51.73      0.00
  251                 40.59    137.40     46.54      0.00
  253                 91.59    137.65     44.04      0.00
  255                 67.86    137.73     47.98      0.00
  257                  0.00    150.87     58.01      0.00
  259                  0.00    150.40     54.34      0.00
  261                  0.00    148.70     64.43      0.00
  263                  0.00    148.52     64.35      0.00
  265                  0.00    147.52     63.92      0.00
  267                  0.00    145.74     54.05      0.00
  269                  0.00    146.26     63.38      0.00
  271                  0.00    145.86     60.60      0.00
  273                  0.00    139.54     57.00      0.00
  275                  0.00    138.72     55.77      0.00
  River           -13217.68    220.00      0.00      0.00  Reservoir
  Lake                 0.00    167.00      0.00      0.00  Reservoir
  1                 -691.55    147.37      6.70      0.00  Tank
  2                 -446.00    139.01      9.75      0.00  Tank
  3                  648.47    159.76     13.33      0.00  Tank
   
   
  Link Results at 23:55:00 hrs:
  ----------------------------------------------
                       Flow  Velocity  Headloss
  Link                  gpm       fps   /1000ft
  ----------------------------------------------
  20                -648.47      0.03      0.00
  40                 691.55      0.03      0.00
  50                 446.00      0.02      0.00
  60               13217.68      9.37      9.00
  101                  0.00      0.00      0.00
  103                130.67      0.21      0.01
  105               -449.79      1.28      0.58
  107                 -8.24      0.02      0.00
  109                -93.10      0.15      0.01
  111               -481.86      1.37      0.66
  112                441.01      1.25      0.56
  113               -191.83      0.54      0.12
  114                 92.59      0.59      0.22
  115               -100.04      0.64      0.26
  116               -132.85      0.38      0.06
  117                668.97      1.90      1.20
  119               -721.17      2.05      1.38
  120               1214.90      3.45      3.63
  121               1080.15      3.06      2.92
  122                372.99      2.38      2.94
  123               9694.01      4.40      1.69
  125              11437.24      5.19      2.29
  129               1300.30      0.92      0.14
  131               1012.14      0.72      0.09
  133               -648.47      0.66      0.09
  135                334.01      0.24      0.01
  137                 71.82      0.11      0.00
  145                262.19      1.67      1.53
  147                252.29      1.61      1.43
  149               -412.62      2.63      3.55
  151               -402.20      2.57      3.38
  153                176.87      0.50      0.10
  155                223.29      0.63      0.16
  159               -237.66      0.67      0.18
  161               -283.13      1.81      1.76
  163               -137.35      0.39      0.06
  169                211.55      1.35      1.03
  171                388.51      1.10      0.44
  173               7794.70      3.54      1.13
  175               7707.69      3.50      1.10
  177               7638.27      3.47      1.09
  179               7343.34      3.33      1.01
  180                  4.37      0.01      0.00
  181                  4.37      0.01      0.00
  183               7101.51      3.22      0.95
  185                -24.46      0.16      0.02
  186                307.01      1.96      2.05
  187               6448.78      2.93      0.79
  189               5207.14      2.36      0.53
  191              -1175.55      0.83      0.12
  193              -1564.14      1.11      0.20
  195               -277.32      0.79      0.24
  197               -375.04      1.06      0.41
  199                316.51      0.90      0.30
  201                691.55      1.96      1.28
  202                592.79      3.78      6.94
  203                328.86      2.10      2.33
  204                592.79      1.68      0.96
  205                307.01      0.87      0.28
  207                 12.35      0.04      0.00
  209                231.32      1.48      1.21
  211                628.27      1.78      1.07
  213                 75.69      0.21      0.02
  215                -92.01      0.26      0.03
  217               -329.39      0.93      0.32
  219               -268.39      0.76      0.22
  221                268.39      1.71      1.60
  223               -116.10      0.33      0.05
  225                -87.47      0.25      0.03
  229               5207.14      3.69      1.58
  231               4864.40      3.45      1.40
  233               4839.16      3.43      1.61
  235                142.28      0.40      0.07
  237                503.37      1.43      0.71
  238                458.98      1.30      0.60
  239                 72.19      0.20      0.02
  240                458.98      1.30      0.60
  241                458.98      1.30      0.60
  243                457.52      0.73      0.15
  245                369.81      0.59      0.10
  247                303.29      0.48      0.07
  249                148.41      0.24      0.02
  251                 69.42      0.14      0.01
  257                 38.30      0.11      0.01
  261                 43.10      0.28      0.05
  263                 27.69      0.08      0.00
  269                 73.14      0.21      0.02
  271                 92.41      0.59      0.22
  273                -45.49      0.13      0.01
  275                -40.62      0.12      0.01
  277                  7.29      0.02      0.00
  281                -47.91      0.20      0.02
  283                -79.81      0.23      0.02
  285                 12.24      0.03      0.00
  287               -178.39      0.73      0.25
  289                446.00      1.82      1.38
  291                 91.59      0.37      0.07
  293                108.16      0.69      0.30
  295                -67.57      0.19      0.02
  297                507.74      3.24      5.21
  299                244.10      1.56      1.34
  301                244.10      1.56      1.34
  303                263.63      1.68      1.55
  305                161.23      0.46      0.09
  307                424.86      1.21      0.52
  309                221.64      1.41      1.12
  311               -313.65      0.89      0.30
  313                516.99      1.47      0.75
  315              -1286.82      0.91      0.14
  317                121.89      0.78      0.37
  319                 20.39      0.06      0.00
  321               7323.14      3.32      1.00
  323                -49.71      0.14      0.01
  325                111.28      0.71      0.31
  329              13217.68      6.00      3.04
  330                  0.00      0.00      0.00
  333                 -0.00      0.00      0.00
  10                   0.00      0.00      0.00  Pump
  335              13217.68      0.00    -92.92  Pump
   
   
  Node Results at 24:00:00 hrs:
  --------------------------------------------------------
                     Demand      Head  Pressure  Chemical
  Node                  gpm        ft       psi      mg/L
  --------------------------------------------------------
  10                   0.00    146.71     -0.13      0.00
  15                 578.36    130.94     42.87      0.00
  20                   0.00    159.78     13.34      0.00
  35                1794.60    147.29     58.40      0.00
  40                   0.00    147.29      6.67      0.00
  50                   0.00    138.85      9.69      0.00
  60                   0.00    209.09     90.60      0.00
  601                  0.00    302.99    131.28      0.00
  61                   0.00    302.99    131.28      0.00
  101                269.73    146.71     45.37      0.00
  103                189.14    146.68     44.92      0.00
  105                192.23    148.06     51.80      0.00
  107                 77.59    148.05     54.62      0.00
  109                328.59    146.68     54.76      0.00
  111                201.55    147.43     59.55      0.00
  113                 28.41    147.51     63.05      0.00
  115                 73.98    148.22     58.16      0.00
  117                167.15    151.35     59.69      0.00
  119                250.10    159.08     68.06      0.00
  120                  0.00    156.58     67.84      0.00
  121                 59.11    162.57     71.31      0.00
  123                  0.00    166.99     67.59      0.00
  125                 64.75    162.02     65.44      0.00
  127                 25.08    160.46     45.26      0.00
  129                  0.00    160.45     47.42      0.00
  131                 60.71    160.43     66.91      0.00
  139                  8.36    155.15     53.80      0.00
  141                 13.99    151.41     63.87      0.00
  143                  8.80    141.87     63.42      0.00
  145                 39.23    152.44     65.62      0.00
  147                 12.14    153.25     58.39      0.00
  149                 38.44    153.59     59.62      0.00
  151                205.16    157.05     53.53      0.00
  153                 62.72    157.14     39.40      0.00
  157                 73.54    156.63     62.19      0.00
  159                 58.67    153.26     63.81      0.00
  161                 22.44    150.98     63.68      0.00
  163                 13.38    150.52     63.05      0.00
  164                  0.00    150.52     63.05      0.00
  166                  3.69    150.52     66.09      0.00
  167                 20.68    148.64     66.57      0.00
  169                  0.00    148.64     66.57      0.00
  171                 55.86    147.56     65.67      0.00
  173                  0.00    147.54     65.66      0.00
  177                 82.60    147.29     60.35      0.00
  179                  0.00    147.29     60.35      0.00
  181                  0.00    147.29     60.36      0.00
  183                  0.00    147.29     59.05      0.00
  184                  0.00    145.87     56.27      0.00
  185                 36.42    146.50     56.55      0.00
  187                  0.00    147.19     58.36      0.00
  189                153.25    147.54     62.20      0.00
  191                116.30    147.41     53.04      0.00
  193                101.26    147.51     56.12      0.00
  195                  0.00    147.59     57.23      0.00
  197                 24.20    147.41     53.91      0.00
  199                169.43    141.98     62.39      0.00
  201                 63.35    141.21     61.14      0.00
  203               4404.19    141.04     60.25      0.00
  204                  0.00    146.95     54.57      0.00
  205                 92.81    141.92     52.39      5.26
  206                  0.00    140.62     60.50     69.65
  207                 98.53    141.05     57.22     69.70
  208                  0.00    140.14     53.79     69.35
  209                  1.24    139.29     61.22     70.04
  211                 12.31    139.01     57.20     58.85
  213                 19.79    138.92     57.16     48.82
  215                130.91    138.71     57.07      0.00
  217                 34.39    138.69     57.49      0.00
  219                 58.67    138.67     58.35      0.00
  225                 32.38    138.68     56.62      0.00
  229                 91.14    138.63     55.52      0.00
  231                 23.40    138.62     57.90      0.00
  237                 22.17    138.67     54.02      0.00
  239                 63.35    138.62     54.43      0.00
  241                  0.00    138.62     54.43      0.00
  243                  6.16    138.62     54.00      0.00
  247                 99.94    138.62     52.26      0.00
  249                  0.00    138.62     52.26      0.00
  251                 34.31    138.62     47.06      0.00
  253                 77.42    138.57     44.44      0.00
  255                 57.35    138.63     48.37      0.00
  257                  0.00    153.37     59.09      0.00
  259                  0.00    152.92     55.43      0.00
  261                  0.00    151.30     65.56      0.00
  263                  0.00    151.13     65.49      0.00
  265                  0.00    149.24     64.67      0.00
  267                  0.00    147.58     54.85      0.00
  269                  0.00    147.97     64.11      0.00
  271                  0.00    147.37     61.26      0.00
  273                  0.00    141.92     58.03      0.00
  275                  0.00    141.20     56.85      0.00
  River           -13106.32    220.00      0.00      0.00  Reservoir
  Lake                 0.00    167.00      0.00      0.00  Reservoir
  1                   31.99    147.29      6.67      0.00  Tank
  2                 -175.67    138.85      9.69      0.00  Tank
  3                 2144.54    159.78     13.34      0.00  Tank
   
   
  Link Results at 24:00:00 hrs:
  ----------------------------------------------
                       Flow  Velocity  Headloss
  Link                  gpm       fps   /1000ft
  ----------------------------------------------
  20               -2144.54      0.09      0.00
  40                 -31.99      0.00      0.00
  50                 175.67      0.01      0.00
  60               13106.32      9.29      8.86
  101                  0.00      0.00      0.00
  103                160.76      0.26      0.02
  105               -430.49      1.22      0.53
  107                 23.29      0.07      0.00
  109                -28.38      0.05      0.00
  111               -356.97      1.01      0.38
  112                489.33      1.39      0.67
  113               -114.45      0.32      0.05
  114                118.71      0.76      0.35
  115                -54.30      0.35      0.08
  116                -24.15      0.07      0.00
  117                646.00      1.83      1.13
  119               -736.33      2.09      1.44
  120               1177.69      3.34      3.43
  121               1054.24      2.99      2.80
  122                371.79      2.37      2.92
  123               9867.38      4.48      1.74
  125              13106.32      5.95      2.95
  129               2808.04      1.99      0.59
  131               2527.09      1.79      0.48
  133              -2144.54      2.19      0.86
  135                357.48      0.25      0.01
  137                 60.71      0.10      0.00
  145                296.77      1.89      1.93
  147                288.41      1.84      1.83
  149               -587.16      3.75      6.81
  151               -578.36      3.69      6.63
  153                312.74      0.89      0.29
  155                351.98      1.00      0.37
  159               -364.12      1.03      0.39
  161               -402.56      2.57      3.39
  163               -153.48      0.44      0.08
  169                216.20      1.38      1.07
  171                454.24      1.29      0.59
  173               7985.34      3.62      1.18
  175               7911.80      3.59      1.16
  177               7853.13      3.56      1.14
  179               7573.90      3.44      1.07
  180                  3.69      0.01      0.00
  181                  3.69      0.01      0.00
  183               7342.75      3.33      1.01
  185                -20.68      0.13      0.01
  186                335.17      2.14      2.41
  187               6701.61      3.04      0.85
  189               4855.14      2.20      0.47
  191              -1790.60      1.27      0.25
  193              -1794.60      1.27      0.26
  195                133.66      0.38      0.06
  197                 51.06      0.14      0.01
  199                 19.07      0.05      0.00
  201                -31.99      0.09      0.00
  202                562.43      3.59      6.29
  203                263.68      1.68      1.55
  204                562.43      1.60      0.87
  205                335.17      0.95      0.33
  207                244.61      0.69      0.19
  209                173.58      1.11      0.71
  211                620.47      1.76      1.05
  213                161.59      0.46      0.09
  215                 88.63      0.25      0.03
  217               -256.83      0.73      0.20
  219               -256.78      0.73      0.20
  221                256.78      1.64      1.47
  223                 21.06      0.06      0.00
  225                 45.25      0.13      0.01
  229               4855.14      3.44      1.39
  231               4534.05      3.22      1.22
  233               4404.19      3.12      1.35
  235                151.66      0.43      0.08
  237                508.05      1.44      0.72
  238                589.25      1.67      0.95
  239                179.73      0.51      0.11
  240                589.25      1.67      0.95
  241                589.25      1.67      0.95
  243                588.02      0.94      0.23
  245                347.10      0.55      0.09
  247                256.35      0.41      0.05
  249                125.44      0.20      0.01
  251                 58.67      0.12      0.01
  257                 32.38      0.09      0.00
  261                 70.95      0.45      0.14
  263                 23.40      0.07      0.00
  269                228.60      0.65      0.16
  271                 43.58      0.28      0.06
  273                162.85      0.46      0.09
  275                 41.08      0.12      0.01
  277                  6.16      0.02      0.00
  281                 34.92      0.14      0.01
  283                 58.42      0.17      0.01
  285                -41.03      0.12      0.01
  287                -23.99      0.10      0.01
  289                175.67      0.72      0.25
  291                 77.42      0.32      0.05
  293                 16.91      0.11      0.01
  295                 17.39      0.05      0.00
  297                495.24      3.16      4.97
  299                237.94      1.52      1.28
  301                237.94      1.52      1.28
  303                257.29      1.64      1.48
  305                150.76      0.43      0.08
  307                408.06      1.16      0.48
  309                214.09      1.37      1.05
  311               -125.46      0.36      0.05
  313                482.81      1.37      0.66
  315              -1928.26      1.37      0.29
  317                113.22      0.72      0.32
  319                 38.44      0.11      0.01
  321               7556.84      3.43      1.06
  323                 66.51      0.19      0.02
  325                137.66      0.88      0.46
  329              13106.32      5.95      2.99
  330                  0.00      0.00      0.00
  333                 -0.00      0.00      0.00
  10                   0.00      0.00      0.00  Pump
  335              13106.32      0.00    -93.90  Pump
   
  Analysis ended Sat May 02 20:55:59 2020
