  Page 1                                    Wed May 06 17:19:30 2020

  ******************************************************************
  *                           E P A N E T                          *
  *                   Hydraulic and Water Quality                  *
  *                   Analysis for Pipe Networks                   *
  *                         Version 2.00.12                        *
  ******************************************************************
  
  Analysis begun Wed May 06 17:19:30 2020

   
  Hydraulic Status:
  -----------------------------------------------------------------------
     0:00:00: Balanced after 5 trials
     0:00:00: Reservoir River is emptying
     0:00:00: Reservoir Lake is closed
     0:00:00: Tank 1 is filling at 13.10 ft
     0:00:00: Tank 2 is filling at 23.50 ft
     0:00:00: Tank 3 is filling at 29.00 ft
   
     0:05:00: Balanced after 1 trials
   
     0:10:00: Balanced after 1 trials
   
     0:15:00: Balanced after 1 trials
   
     0:20:00: Balanced after 1 trials
   
     0:25:00: Balanced after 1 trials
   
     0:30:00: Balanced after 1 trials
   
     0:35:00: Balanced after 1 trials
   
     0:40:00: Balanced after 1 trials
   
     0:45:00: Balanced after 1 trials
   
     0:50:00: Balanced after 1 trials
   
     0:55:00: Balanced after 1 trials
   
     1:00:00: Pump 10 changed by timer control
     1:00:00: Balanced after 7 trials
     1:00:00: Reservoir Lake is emptying
     1:00:00: Tank 2 is emptying at 23.65 ft
     1:00:00: Pump 10 changed from closed to open
   
     1:05:00: Balanced after 2 trials
   
     1:10:00: Balanced after 2 trials
   
     1:15:00: Balanced after 2 trials
   
     1:20:00: Balanced after 2 trials
   
     1:25:00: Balanced after 2 trials
   
     1:30:00: Balanced after 2 trials
   
     1:35:00: Balanced after 2 trials
   
     1:40:00: Balanced after 2 trials
   
     1:45:00: Balanced after 2 trials
   
     1:50:00: Balanced after 2 trials
   
     1:55:00: Balanced after 2 trials
   
     2:00:00: Balanced after 4 trials
     2:00:00: Tank 2 is filling at 22.64 ft
   
     2:05:00: Balanced after 1 trials
   
     2:10:00: Balanced after 1 trials
   
     2:15:00: Balanced after 1 trials
   
     2:20:00: Balanced after 1 trials
   
     2:25:00: Balanced after 1 trials
   
     2:30:00: Balanced after 1 trials
   
     2:35:00: Balanced after 1 trials
   
     2:40:00: Balanced after 1 trials
   
     2:45:00: Balanced after 1 trials
   
     2:50:00: Balanced after 1 trials
   
     2:55:00: Balanced after 1 trials
   
     3:00:00: Balanced after 2 trials
   
     3:05:00: Balanced after 1 trials
   
     3:10:00: Balanced after 1 trials
   
     3:15:00: Balanced after 1 trials
   
     3:20:00: Balanced after 1 trials
   
     3:25:00: Balanced after 1 trials
   
     3:30:00: Balanced after 1 trials
   
     3:35:00: Balanced after 1 trials
   
     3:40:00: Balanced after 1 trials
   
     3:45:00: Balanced after 1 trials
   
     3:46:58: Pump 335 changed by Tank 1 control
     3:46:58: Pipe 330 changed by Tank 1 control
     3:46:58: Balanced after 4 trials
     3:46:58: Tank 2 is emptying at 23.57 ft
     3:46:58: Tank 3 is emptying at 33.75 ft
     3:46:58: Pipe 330 changed from closed to open
     3:46:58: Pump 335 changed from open to closed
   
     3:50:00: Balanced after 1 trials
   
     3:55:00: Balanced after 2 trials
   
     4:00:00: Balanced after 3 trials
     4:00:00: Tank 2 is filling at 23.56 ft
     4:00:00: Tank 3 is filling at 33.72 ft
   
     4:05:00: Balanced after 2 trials
   
     4:10:00: Balanced after 2 trials
   
     4:15:00: Balanced after 2 trials
   
     4:20:00: Balanced after 2 trials
   
     4:25:00: Balanced after 2 trials
   
     4:30:00: Balanced after 2 trials
   
     4:35:00: Balanced after 2 trials
   
     4:40:00: Balanced after 2 trials
   
     4:45:00: Balanced after 2 trials
   
     4:50:00: Balanced after 2 trials
   
     4:55:00: Balanced after 2 trials
   
     5:00:00: Balanced after 3 trials
     5:00:00: Tank 3 is emptying at 34.01 ft
   
     5:05:00: Balanced after 2 trials
   
     5:10:00: Balanced after 2 trials
   
     5:15:00: Balanced after 2 trials
   
     5:20:00: Balanced after 2 trials
   
     5:25:00: Balanced after 2 trials
   
     5:30:00: Balanced after 2 trials
   
     5:35:00: Balanced after 2 trials
   
     5:40:00: Balanced after 2 trials
   
     5:45:00: Balanced after 2 trials
   
     5:50:00: Balanced after 2 trials
   
     5:55:00: Balanced after 2 trials
   
     6:00:00: Balanced after 3 trials
     6:00:00: Tank 3 is filling at 33.92 ft
   
     6:05:00: Balanced after 1 trials
   
     6:10:00: Balanced after 1 trials
   
     6:15:00: Balanced after 1 trials
   
     6:20:00: Balanced after 1 trials
   
     6:25:00: Balanced after 1 trials
   
     6:30:00: Balanced after 1 trials
   
     6:35:00: Balanced after 1 trials
   
     6:40:00: Balanced after 1 trials
   
     6:45:00: Balanced after 1 trials
   
     6:50:00: Balanced after 1 trials
   
     6:55:00: Balanced after 1 trials
   
     7:00:00: Balanced after 3 trials
   
     7:05:00: Balanced after 1 trials
   
     7:10:00: Balanced after 1 trials
   
     7:15:00: Balanced after 1 trials
   
     7:20:00: Balanced after 1 trials
   
     7:25:00: Balanced after 1 trials
   
     7:30:00: Balanced after 1 trials
   
     7:35:00: Balanced after 1 trials
   
     7:40:00: Balanced after 1 trials
   
     7:45:00: Balanced after 1 trials
   
     7:50:00: Balanced after 1 trials
   
     7:55:00: Balanced after 1 trials
   
     8:00:00: Balanced after 3 trials
   
     8:05:00: Balanced after 1 trials
   
     8:10:00: Balanced after 1 trials
   
     8:15:00: Balanced after 1 trials
   
     8:20:00: Balanced after 1 trials
   
     8:25:00: Balanced after 1 trials
   
     8:30:00: Balanced after 1 trials
   
     8:35:00: Balanced after 1 trials
   
     8:40:00: Balanced after 1 trials
   
     8:45:00: Balanced after 1 trials
   
     8:50:00: Balanced after 1 trials
   
     8:55:00: Balanced after 1 trials
   
     9:00:00: Balanced after 3 trials
     9:00:00: Tank 3 is emptying at 35.05 ft
   
     9:05:00: Balanced after 2 trials
   
     9:10:00: Balanced after 2 trials
   
     9:15:00: Balanced after 2 trials
   
     9:20:00: Balanced after 2 trials
   
     9:25:00: Balanced after 2 trials
   
     9:30:00: Balanced after 2 trials
   
     9:35:00: Balanced after 2 trials
   
     9:40:00: Balanced after 2 trials
   
     9:45:00: Balanced after 2 trials
   
     9:50:00: Balanced after 2 trials
   
     9:55:00: Balanced after 2 trials
   
    10:00:00: Balanced after 3 trials
    10:00:00: Tank 1 is emptying at 22.82 ft
   
    10:05:00: Balanced after 1 trials
   
    10:10:00: Balanced after 1 trials
   
    10:15:00: Balanced after 1 trials
   
    10:20:00: Balanced after 1 trials
   
    10:25:00: Balanced after 1 trials
   
    10:30:00: Balanced after 1 trials
   
    10:35:00: Balanced after 1 trials
   
    10:40:00: Balanced after 1 trials
   
    10:45:00: Balanced after 1 trials
   
    10:50:00: Balanced after 1 trials
   
    10:55:00: Balanced after 1 trials
   
    11:00:00: Balanced after 3 trials
   
    11:05:00: Balanced after 1 trials
   
    11:10:00: Balanced after 1 trials
   
    11:15:00: Balanced after 1 trials
   
    11:20:00: Balanced after 1 trials
   
    11:25:00: Balanced after 1 trials
   
    11:30:00: Balanced after 1 trials
   
    11:35:00: Balanced after 1 trials
   
    11:40:00: Balanced after 1 trials
   
    11:45:00: Balanced after 1 trials
   
    11:50:00: Balanced after 1 trials
   
    11:55:00: Balanced after 1 trials
   
    12:00:00: Balanced after 3 trials
   
    12:05:00: Balanced after 2 trials
   
    12:10:00: Balanced after 2 trials
   
    12:15:00: Balanced after 2 trials
   
    12:20:00: Balanced after 2 trials
   
    12:25:00: Balanced after 2 trials
   
    12:30:00: Balanced after 2 trials
   
    12:35:00: Balanced after 1 trials
   
    12:40:00: Balanced after 1 trials
   
    12:45:00: Balanced after 1 trials
   
    12:50:00: Balanced after 1 trials
   
    12:55:00: Balanced after 1 trials
   
    13:00:00: Balanced after 3 trials
   
    13:05:00: Balanced after 1 trials
   
    13:10:00: Balanced after 1 trials
   
    13:15:00: Balanced after 1 trials
   
    13:20:00: Balanced after 1 trials
   
    13:25:00: Balanced after 1 trials
   
    13:30:00: Balanced after 1 trials
   
    13:35:00: Balanced after 1 trials
   
    13:40:00: Balanced after 1 trials
   
    13:45:00: Balanced after 1 trials
   
    13:50:00: Balanced after 1 trials
   
    13:55:00: Balanced after 1 trials
   
    14:00:00: Balanced after 3 trials
    14:00:00: Tank 2 is emptying at 29.12 ft
   
    14:05:00: Balanced after 1 trials
   
    14:10:00: Balanced after 1 trials
   
    14:15:00: Balanced after 1 trials
   
    14:20:00: Balanced after 1 trials
   
    14:25:00: Balanced after 1 trials
   
    14:30:00: Balanced after 1 trials
   
    14:35:00: Balanced after 1 trials
   
    14:40:00: Balanced after 1 trials
   
    14:45:00: Balanced after 1 trials
   
    14:50:00: Balanced after 1 trials
   
    14:55:00: Balanced after 1 trials
   
    15:00:00: Pump 10 changed by timer control
    15:00:00: Balanced after 5 trials
    15:00:00: Reservoir Lake is closed
    15:00:00: Pump 10 changed from open to closed
   
    15:05:00: Balanced after 2 trials
   
    15:10:00: Balanced after 2 trials
   
    15:15:00: Balanced after 2 trials
   
    15:20:00: Balanced after 2 trials
   
    15:25:00: Balanced after 2 trials
   
    15:30:00: Balanced after 2 trials
   
    15:35:00: Balanced after 2 trials
   
    15:40:00: Balanced after 2 trials
   
    15:45:00: Balanced after 2 trials
   
    15:50:00: Balanced after 2 trials
   
    15:55:00: Balanced after 2 trials
   
    16:00:00: Balanced after 4 trials
    16:00:00: Tank 2 is filling at 27.10 ft
   
    16:05:00: Balanced after 1 trials
   
    16:10:00: Balanced after 1 trials
   
    16:15:00: Balanced after 1 trials
   
    16:20:00: Balanced after 1 trials
   
    16:25:00: Balanced after 1 trials
   
    16:30:00: Balanced after 1 trials
   
    16:35:00: Balanced after 1 trials
   
    16:40:00: Balanced after 1 trials
   
    16:45:00: Balanced after 1 trials
   
    16:50:00: Balanced after 1 trials
   
    16:55:00: Balanced after 1 trials
   
    17:00:00: Balanced after 3 trials
    17:00:00: Tank 2 is emptying at 27.51 ft
   
    17:05:00: Balanced after 1 trials
   
    17:10:00: Balanced after 1 trials
   
    17:15:00: Balanced after 1 trials
   
    17:20:00: Balanced after 1 trials
   
    17:25:00: Balanced after 1 trials
   
    17:30:00: Balanced after 1 trials
   
    17:35:00: Balanced after 1 trials
   
    17:40:00: Balanced after 1 trials
   
    17:45:00: Balanced after 1 trials
   
    17:50:00: Balanced after 1 trials
   
    17:55:00: Balanced after 1 trials
   
    18:00:00: Balanced after 2 trials
   
    18:05:00: Balanced after 1 trials
   
    18:10:00: Balanced after 1 trials
   
    18:15:00: Balanced after 1 trials
   
    18:20:00: Balanced after 1 trials
   
    18:25:00: Balanced after 1 trials
   
    18:30:00: Balanced after 1 trials
   
    18:35:00: Balanced after 1 trials
   
    18:40:00: Balanced after 1 trials
   
    18:45:00: Balanced after 1 trials
   
    18:50:00: Balanced after 1 trials
   
    18:55:00: Balanced after 1 trials
   
    19:00:00: Balanced after 4 trials
    19:00:00: Tank 1 is filling at 18.34 ft
    19:00:00: Tank 2 is filling at 26.28 ft
   
    19:05:00: Balanced after 2 trials
   
    19:10:00: Balanced after 2 trials
   
    19:15:00: Balanced after 2 trials
   
    19:20:00: Balanced after 2 trials
   
    19:25:00: Balanced after 2 trials
   
    19:30:00: Balanced after 2 trials
   
    19:35:00: Balanced after 2 trials
   
    19:40:00: Balanced after 2 trials
   
    19:45:00: Balanced after 2 trials
   
    19:50:00: Balanced after 2 trials
   
    19:55:00: Balanced after 2 trials
   
    20:00:00: Balanced after 4 trials
    20:00:00: Tank 1 is emptying at 18.42 ft
    20:00:00: Tank 2 is emptying at 26.77 ft
   
    20:05:00: Balanced after 1 trials
   
    20:10:00: Balanced after 1 trials
   
    20:15:00: Balanced after 1 trials
   
    20:20:00: Balanced after 1 trials
   
    20:25:00: Balanced after 1 trials
   
    20:30:00: Balanced after 1 trials
   
    20:35:00: Balanced after 1 trials
   
    20:40:00: Balanced after 1 trials
   
    20:45:00: Balanced after 1 trials
   
    20:50:00: Balanced after 1 trials
   
    20:55:00: Balanced after 1 trials
   
    21:00:00: Balanced after 3 trials
   
    21:05:00: Balanced after 1 trials
   
    21:10:00: Balanced after 1 trials
   
    21:15:00: Balanced after 1 trials
   
    21:20:00: Balanced after 1 trials
   
    21:25:00: Balanced after 1 trials
   
    21:30:00: Balanced after 1 trials
   
    21:35:00: Balanced after 1 trials
   
    21:40:00: Balanced after 1 trials
   
    21:45:00: Balanced after 1 trials
   
    21:46:47: Pump 335 changed by Tank 1 control
    21:46:47: Pipe 330 changed by Tank 1 control
    21:46:47: Balanced after 5 trials
    21:46:47: Tank 1 is filling at 17.10 ft
    21:46:47: Tank 3 is filling at 29.59 ft
    21:46:47: Pipe 330 changed from open to closed
    21:46:47: Pump 335 changed from closed to open
   
    21:50:00: Balanced after 2 trials
   
    21:55:00: Balanced after 2 trials
   
    22:00:00: Balanced after 3 trials
    22:00:00: Tank 1 is emptying at 17.14 ft
   
    22:05:00: Balanced after 2 trials
   
    22:10:00: Balanced after 2 trials
   
    22:15:00: Balanced after 2 trials
   
    22:20:00: Balanced after 2 trials
   
    22:25:00: Balanced after 2 trials
   
    22:30:00: Balanced after 2 trials
   
    22:35:00: Balanced after 2 trials
   
    22:40:00: Balanced after 2 trials
   
    22:45:00: Balanced after 2 trials
   
    22:50:00: Balanced after 2 trials
   
    22:55:00: Balanced after 2 trials
   
    23:00:00: Balanced after 4 trials
   
    23:05:00: Balanced after 2 trials
   
    23:10:00: Balanced after 2 trials
   
    23:15:00: Balanced after 2 trials
   
    23:20:00: Balanced after 2 trials
   
    23:25:00: Balanced after 2 trials
   
    23:30:00: Balanced after 2 trials
   
    23:35:00: Balanced after 2 trials
   
    23:40:00: Balanced after 2 trials
   
    23:45:00: Balanced after 2 trials
   
    23:50:00: Balanced after 2 trials
   
    23:55:00: Balanced after 2 trials
   
    24:00:00: Balanced after 4 trials
    24:00:00: Tank 1 is filling at 15.70 ft
    24:00:00: Tank 2 is filling at 23.02 ft
   
   
  Node Results at 0:00:00 hrs:
  --------------------------------------------------------
                     Demand      Head  Pressure  Chemical
  Node                  gpm        ft       psi      mg/L
  --------------------------------------------------------
  10                   0.00    148.11      0.48      0.00
  15                 576.66    130.95     42.88      0.00
  20                   0.00    158.00     12.57      0.00
  35                1637.43    147.84     58.64      0.00
  40                   0.00    145.00      5.68      0.00
  50                   0.00    140.00     10.18      0.00
  60                   0.00    209.07     90.59      0.00
  601                  0.00    302.83    131.22      0.00
  61                   0.00    302.83    131.22      0.00
  101                226.04    148.11     45.98      0.00
  103                158.51    148.07     45.53      0.00
  105                161.09    149.27     52.33      0.00
  107                 65.02    149.26     55.14      0.00
  109                275.37    148.07     55.36      0.00
  111                168.91    148.50     60.01      0.00
  113                 23.81    148.50     63.48      0.00
  115                 62.00    149.29     58.62      0.00
  117                140.07    152.16     60.04      0.00
  119                209.59    158.94     68.00      0.00
  120                  0.00    156.75     67.92      0.00
  121                 49.54    162.11     71.11      0.00
  123                  0.00    166.54     67.40      0.00
  125                 54.26    161.35     65.15      0.00
  127                 21.02    159.08     44.66      0.00
  129                  0.00    159.07     46.83      0.00
  131                 50.87    159.05     66.32      0.00
  139                  7.01    154.51     53.52      0.00
  141                 11.72    151.27     63.81      0.00
  143                  7.38    141.82     63.40      0.00
  145                 32.88    152.41     65.60      0.00
  147                 10.17    153.26     58.39      0.00
  149                 32.21    153.61     59.63      0.00
  151                171.93    157.10     53.55      0.00
  153                 52.56    157.18     39.42      0.00
  157                 61.63    156.68     62.21      0.00
  159                 49.17    153.57     63.94      0.00
  161                 18.80    151.45     63.89      0.00
  163                 11.21    151.03     63.27      0.00
  164                  0.00    151.03     63.27      0.00
  166                  3.09    151.03     66.31      0.00
  167                 17.33    149.29     66.85      0.00
  169                  0.00    149.29     66.85      0.00
  171                 46.81    148.28     65.98      0.00
  173                  0.00    148.26     65.97      0.00
  177                 69.22    147.79     60.57      0.00
  179                  0.00    147.75     60.55      0.00
  181                  0.00    147.85     60.60      0.00
  183                  0.00    147.78     59.26      0.00
  184                  0.00    146.96     56.75      0.00
  185                 30.52    147.42     56.94      0.00
  187                  0.00    148.08     58.75      0.00
  189                128.42    148.32     62.53      0.00
  191                 97.46    148.39     53.47      0.00
  193                 84.86    148.47     56.53      0.00
  195                  0.00    148.54     57.64      0.00
  197                 20.28    148.41     54.34      0.00
  199                141.99    144.19     63.34      0.00
  201                 53.09    143.64     62.19      0.00
  203               3568.14    143.53     61.32      0.00
  204                  0.00    147.85     54.96      0.00
  205                 77.78    144.10     53.34      0.00
  206                  0.00    142.80     61.44      0.00
  207                 82.57    143.32     58.20      0.00
  208                  0.00    142.22     54.69      0.00
  209                  1.04    141.20     62.05      0.00
  211                 10.32    140.86     58.00      0.00
  213                 16.59    140.78     57.97      0.00
  215                109.71    140.63     57.90      0.00
  217                 28.82    140.61     58.33      0.00
  219                 49.17    140.60     59.19      0.00
  225                 27.13    140.61     57.46      0.00
  229                 76.37    140.25     56.22      0.00
  231                 19.61    140.25     58.60      0.00
  237                 18.58    140.25     54.70      0.00
  239                 53.09    140.12     55.08      0.00
  241                  0.00    140.12     55.08      0.00
  243                  5.16    140.11     54.65      0.00
  247                 83.75    140.08     52.90      0.00
  249                  0.00    140.08     52.90      0.00
  251                 28.75    140.06     47.69      0.00
  253                 64.88    139.96     45.05      0.00
  255                 48.06    140.00     48.96      0.00
  257                  0.00    153.93     59.33      0.00
  259                  0.00    153.54     55.70      0.00
  261                  0.00    152.12     65.91      0.00
  263                  0.00    151.97     65.85      0.00
  265                  0.00    149.84     64.93      0.00
  267                  0.00    148.47     55.23      0.00
  269                  0.00    148.67     64.42      0.00
  271                  0.00    147.97     61.51      0.00
  273                  0.00    144.11     58.98      0.00
  275                  0.00    143.61     57.89      0.00
  River           -13121.64    220.00      0.00      0.00  Reservoir
  Lake                 0.00    167.00      0.00      0.00  Reservoir
  1                  951.17    145.00      5.68      0.00  Tank
  2                   10.86    140.00     10.18      0.00  Tank
  3                 2750.13    158.00     12.57      0.00  Tank
   
   
  Link Results at 0:00:00 hrs:
  ----------------------------------------------
                       Flow  Velocity  Headloss
  Link                  gpm       fps   /1000ft
  ----------------------------------------------
  20               -2750.13      0.11      0.00
  40                -951.17      0.04      0.00
  50                 -10.86      0.00      0.00
  60               13121.64      9.31      8.88
  101                  0.00      0.00      0.00
  103                171.51      0.27      0.02
  105               -397.55      1.13      0.46
  107                 43.32      0.12      0.01
  109                 13.00      0.02      0.00
  111               -262.36      0.74      0.21
  112                492.64      1.40      0.68
  113                -29.80      0.08      0.00
  114                125.82      0.80      0.39
  115                -21.70      0.14      0.02
  116                 72.21      0.20      0.02
  117                601.96      1.71      0.99
  119               -702.16      1.99      1.32
  120               1094.24      3.10      2.99
  121                982.62      2.79      2.45
  122                349.97      2.23      2.61
  123               9373.61      4.25      1.59
  125              13121.64      5.96      2.96
  129               3348.52      2.37      0.81
  131               3095.70      2.20      0.70
  133              -2750.13      2.81      1.37
  135                324.55      0.23      0.01
  137                 50.87      0.08      0.00
  145                273.68      1.75      1.66
  147                266.67      1.70      1.58
  149               -584.04      3.73      6.75
  151               -576.66      3.68      6.59
  153                329.09      0.93      0.32
  155                361.97      1.03      0.39
  159               -372.14      1.06      0.41
  161               -404.35      2.58      3.41
  163               -145.99      0.41      0.07
  169                198.55      1.27      0.91
  171                430.29      1.22      0.53
  173               7639.48      3.47      1.09
  175               7577.85      3.44      1.07
  177               7528.68      3.42      1.06
  179               7273.02      3.30      0.99
  180                  3.09      0.01      0.00
  181                  3.09      0.01      0.00
  183               7065.87      3.21      0.94
  185                -17.33      0.11      0.01
  186                330.77      2.11      2.35
  187               6459.60      2.93      0.80
  189               4102.91      1.86      0.34
  191              -2309.87      1.64      0.41
  193              -1637.43      1.16      0.22
  195                822.96      2.33      1.77
  197                753.74      2.14      1.50
  199               -197.43      0.56      0.13
  201               -951.17      2.70      2.31
  202                472.54      3.02      4.56
  203                172.29      1.10      0.70
  204                472.54      1.34      0.63
  205                330.77      0.94      0.33
  207                369.72      1.05      0.40
  209                137.85      0.88      0.47
  211                588.95      1.67      0.95
  213                192.92      0.55      0.12
  215                197.57      0.56      0.13
  217               -219.48      0.62      0.15
  219               -236.86      0.67      0.18
  221                236.86      1.51      1.27
  223                 70.90      0.20      0.02
  225                 91.18      0.26      0.03
  229               4102.91      2.91      1.02
  231               3783.71      2.68      0.88
  233               3568.14      2.53      0.91
  235                177.21      0.50      0.10
  237                478.68      1.36      0.65
  238                651.88      1.85      1.15
  239                255.78      0.73      0.20
  240                651.88      1.85      1.15
  241                651.88      1.85      1.15
  243                650.85      1.04      0.28
  245                328.24      0.52      0.08
  247                214.83      0.34      0.04
  249                105.12      0.17      0.01
  251                 49.17      0.10      0.00
  257                 27.13      0.08      0.00
  261                 96.82      0.62      0.24
  263                 19.61      0.06      0.00
  269                312.29      0.89      0.29
  271                 -0.84      0.01      0.00
  273                294.55      0.84      0.26
  275                 93.64      0.27      0.03
  277                  5.16      0.01      0.00
  281                 88.47      0.36      0.07
  283                147.83      0.42      0.07
  285                -77.21      0.22      0.02
  287                 81.93      0.33      0.06
  289                -10.86      0.04      0.00
  291                 64.88      0.27      0.04
  293                -41.87      0.27      0.05
  295                 70.62      0.20      0.02
  297                461.59      2.95      4.36
  299                221.77      1.42      1.12
  301                221.77      1.42      1.12
  303                239.81      1.53      1.30
  305                140.38      0.40      0.07
  307                380.19      1.08      0.42
  309                192.85      1.23      0.87
  311                  4.72      0.01      0.00
  313                438.43      1.24      0.55
  315              -2460.39      1.74      0.46
  317                 93.30      0.60      0.23
  319                 83.92      0.24      0.03
  321               7258.72      3.29      0.99
  323                162.48      0.46      0.09
  325                150.52      0.96      0.55
  329              13121.64      5.96      3.00
  330                  0.00      0.00      0.00
  333                 -0.00      0.00      0.00
  10                   0.00      0.00      0.00  Pump
  335              13121.64      0.00    -93.76  Pump
   
   
  Node Results at 0:05:00 hrs:
  --------------------------------------------------------
                     Demand      Head  Pressure  Chemical
  Node                  gpm        ft       psi      mg/L
  --------------------------------------------------------
  10                   0.00    148.19      0.51      0.00
  15                 576.66    131.03     42.91      0.00
  20                   0.00    158.09     12.60      0.00
  35                1637.43    147.92     58.68      0.00
  40                   0.00    145.11      5.72      0.00
  50                   0.00    140.00     10.18      0.00
  60                   0.00    209.07     90.59      0.00
  601                  0.00    302.86    131.23      0.00
  61                   0.00    302.86    131.23      0.00
  101                226.04    148.19     46.01      0.00
  103                158.51    148.16     45.56      0.00
  105                161.09    149.35     52.37      0.00
  107                 65.02    149.34     55.18      0.00
  109                275.37    148.15     55.40      0.00
  111                168.91    148.58     60.05      0.00
  113                 23.81    148.59     63.52      0.00
  115                 62.00    149.37     58.66      0.00
  117                140.07    152.24     60.07      0.00
  119                209.59    159.02     68.04      0.00
  120                  0.00    156.83     67.95      0.00
  121                 49.54    162.19     71.14      0.00
  123                  0.00    166.62     67.43      0.00
  125                 54.26    161.43     65.18      0.00
  127                 21.02    159.16     44.70      0.00
  129                  0.00    159.15     46.86      0.00
  131                 50.87    159.14     66.35      0.00
  139                  7.01    154.59     53.55      0.00
  141                 11.72    151.35     63.85      0.00
  143                  7.38    141.91     63.44      0.00
  145                 32.88    152.49     65.64      0.00
  147                 10.17    153.34     58.43      0.00
  149                 32.21    153.69     59.66      0.00
  151                171.93    157.18     53.59      0.00
  153                 52.56    157.26     39.46      0.00
  157                 61.63    156.76     62.25      0.00
  159                 49.17    153.65     63.98      0.00
  161                 18.80    151.53     63.93      0.00
  163                 11.21    151.11     63.31      0.00
  164                  0.00    151.11     63.31      0.00
  166                  3.09    151.11     66.34      0.00
  167                 17.33    149.37     66.89      0.00
  169                  0.00    149.37     66.89      0.00
  171                 46.81    148.36     66.02      0.00
  173                  0.00    148.34     66.01      0.00
  177                 69.22    147.88     60.61      0.00
  179                  0.00    147.83     60.59      0.00
  181                  0.00    147.93     60.63      0.00
  183                  0.00    147.86     59.30      0.00
  184                  0.00    147.04     56.78      0.00
  185                 30.52    147.50     56.98      0.00
  187                  0.00    148.17     58.78      0.00
  189                128.42    148.40     62.57      0.00
  191                 97.46    148.47     53.50      0.00
  193                 84.86    148.55     56.57      0.00
  195                  0.00    148.62     57.68      0.00
  197                 20.28    148.50     54.38      0.00
  199                141.99    144.26     63.38      0.00
  201                 53.09    143.71     62.23      0.00
  203               3568.14    143.60     61.35      0.00
  204                  0.00    147.93     55.00      0.00
  205                 77.78    144.17     53.37      0.00
  206                  0.00    142.86     61.47      0.00
  207                 82.57    143.39     58.23      0.00
  208                  0.00    142.27     54.71      0.00
  209                  1.04    141.24     62.06      0.00
  211                 10.32    140.89     58.02      0.00
  213                 16.59    140.81     57.98      0.00
  215                109.71    140.66     57.91      0.00
  217                 28.82    140.64     58.34      0.00
  219                 49.17    140.63     59.20      0.00
  225                 27.13    140.64     57.47      0.00
  229                 76.37    140.27     56.23      0.00
  231                 19.61    140.26     58.61      0.00
  237                 18.58    140.27     54.71      0.00
  239                 53.09    140.13     55.08      0.00
  241                  0.00    140.13     55.08      0.00
  243                  5.16    140.13     54.65      0.00
  247                 83.75    140.10     52.90      0.00
  249                  0.00    140.10     52.90      0.00
  251                 28.75    140.07     47.69      0.00
  253                 64.88    139.96     45.05      0.00
  255                 48.06    140.01     48.97      0.00
  257                  0.00    154.02     59.37      0.00
  259                  0.00    153.62     55.73      0.00
  261                  0.00    152.20     65.95      0.00
  263                  0.00    152.05     65.88      0.00
  265                  0.00    149.92     64.96      0.00
  267                  0.00    148.55     55.27      0.00
  269                  0.00    148.75     64.46      0.00
  271                  0.00    148.05     61.55      0.00
  273                  0.00    144.19     59.01      0.00
  275                  0.00    143.68     57.92      0.00
  River           -13118.96    220.00      0.00      0.00  Reservoir
  Lake                 0.00    167.00      0.00      0.00  Reservoir
  1                  945.89    145.11      5.72      0.00  Tank
  2                   15.92    140.00     10.18      0.00  Tank
  3                 2747.67    158.09     12.60      0.00  Tank
   
   
  Link Results at 0:05:00 hrs:
  ----------------------------------------------
                       Flow  Velocity  Headloss
  Link                  gpm       fps   /1000ft
  ----------------------------------------------
  20               -2747.67      0.11      0.00
  40                -945.89      0.04      0.00
  50                 -15.92      0.00      0.00
  60               13118.96      9.30      8.88
  101                  0.00      0.00      0.00
  103                171.50      0.27      0.02
  105               -397.54      1.13      0.46
  107                 43.31      0.12      0.01
  109                 12.99      0.02      0.00
  111               -262.38      0.74      0.21
  112                492.61      1.40      0.68
  113                -29.84      0.08      0.00
  114                125.81      0.80      0.39
  115                -21.71      0.14      0.02
  116                 72.16      0.20      0.02
  117                601.94      1.71      0.99
  119               -702.13      1.99      1.32
  120               1094.19      3.10      2.99
  121                982.58      2.79      2.45
  122                349.95      2.23      2.61
  123               9373.36      4.25      1.59
  125              13118.96      5.95      2.96
  129               3346.11      2.37      0.81
  131               3093.28      2.19      0.70
  133              -2747.67      2.81      1.37
  135                324.60      0.23      0.01
  137                 50.87      0.08      0.00
  145                273.73      1.75      1.66
  147                266.72      1.70      1.58
  149               -584.04      3.73      6.75
  151               -576.66      3.68      6.59
  153                329.04      0.93      0.32
  155                361.92      1.03      0.39
  159               -372.10      1.06      0.41
  161               -404.31      2.58      3.41
  163               -146.00      0.41      0.07
  169                198.56      1.27      0.91
  171                430.24      1.22      0.53
  173               7639.33      3.47      1.09
  175               7577.70      3.44      1.07
  177               7528.53      3.42      1.06
  179               7272.89      3.30      0.99
  180                  3.09      0.01      0.00
  181                  3.09      0.01      0.00
  183               7065.79      3.21      0.94
  185                -17.33      0.11      0.01
  186                330.93      2.11      2.36
  187               6459.77      2.93      0.80
  189               4107.25      1.86      0.34
  191              -2305.70      1.64      0.41
  193              -1637.43      1.16      0.22
  195                818.73      2.32      1.75
  197                749.51      2.13      1.49
  199               -196.38      0.56      0.12
  201               -945.89      2.68      2.29
  202                473.27      3.02      4.57
  203                172.87      1.10      0.71
  204                473.27      1.34      0.63
  205                330.93      0.94      0.33
  207                369.25      1.05      0.40
  209                137.97      0.88      0.47
  211                588.69      1.67      0.95
  213                192.96      0.55      0.12
  215                197.41      0.56      0.13
  217               -219.53      0.62      0.15
  219               -236.83      0.67      0.18
  221                236.83      1.51      1.27
  223                 70.89      0.20      0.02
  225                 91.17      0.26      0.03
  229               4107.25      2.91      1.02
  231               3786.62      2.69      0.88
  233               3568.14      2.53      0.91
  235                178.63      0.51      0.10
  237                480.77      1.36      0.65
  238                656.95      1.86      1.16
  239                258.75      0.73      0.21
  240                656.95      1.86      1.16
  241                656.95      1.86      1.16
  243                655.92      1.05      0.29
  245                329.53      0.53      0.08
  247                214.83      0.34      0.04
  249                105.12      0.17      0.01
  251                 49.17      0.10      0.00
  257                 27.13      0.08      0.00
  261                 98.11      0.63      0.25
  263                 19.61      0.06      0.00
  269                316.07      0.90      0.30
  271                 -2.12      0.01      0.00
  273                299.62      0.85      0.27
  275                 95.54      0.27      0.03
  277                  5.16      0.01      0.00
  281                 90.37      0.37      0.07
  283                151.00      0.43      0.08
  285                -78.50      0.22      0.02
  287                 85.12      0.35      0.06
  289                -15.92      0.07      0.00
  291                 64.88      0.27      0.04
  293                -43.74      0.28      0.06
  295                 72.49      0.21      0.02
  297                461.57      2.95      4.36
  299                221.76      1.42      1.12
  301                221.76      1.42      1.12
  303                239.80      1.53      1.30
  305                140.37      0.40      0.07
  307                380.18      1.08      0.42
  309                192.80      1.23      0.87
  311                  4.61      0.01      0.00
  313                438.23      1.24      0.55
  315              -2456.16      1.74      0.46
  317                 93.35      0.60      0.23
  319                 85.28      0.24      0.03
  321               7258.59      3.29      0.99
  323                165.40      0.47      0.09
  325                150.46      0.96      0.55
  329              13118.96      5.95      2.99
  330                  0.00      0.00      0.00
  333                 -0.00      0.00      0.00
  10                   0.00      0.00      0.00  Pump
  335              13118.96      0.00    -93.79  Pump
   
   
  Node Results at 0:10:00 hrs:
  --------------------------------------------------------
                     Demand      Head  Pressure  Chemical
  Node                  gpm        ft       psi      mg/L
  --------------------------------------------------------
  10                   0.00    148.27      0.55      0.00
  15                 576.66    131.12     42.95      0.00
  20                   0.00    158.17     12.64      0.00
  35                1637.43    148.01     58.71      0.00
  40                   0.00    145.22      5.77      0.00
  50                   0.00    140.01     10.19      0.00
  60                   0.00    209.07     90.59      0.00
  601                  0.00    302.88    131.24      0.00
  61                   0.00    302.88    131.24      0.00
  101                226.04    148.27     46.05      0.00
  103                158.51    148.24     45.60      0.00
  105                161.09    149.44     52.40      0.00
  107                 65.02    149.42     55.21      0.00
  109                275.37    148.24     55.44      0.00
  111                168.91    148.66     60.08      0.00
  113                 23.81    148.67     63.55      0.00
  115                 62.00    149.45     58.69      0.00
  117                140.07    152.32     60.11      0.00
  119                209.59    159.10     68.07      0.00
  120                  0.00    156.91     67.99      0.00
  121                 49.54    162.27     71.18      0.00
  123                  0.00    166.70     67.46      0.00
  125                 54.26    161.52     65.22      0.00
  127                 21.02    159.25     44.74      0.00
  129                  0.00    159.24     46.90      0.00
  131                 50.87    159.22     66.39      0.00
  139                  7.01    154.68     53.59      0.00
  141                 11.72    151.44     63.88      0.00
  143                  7.38    141.99     63.47      0.00
  145                 32.88    152.57     65.68      0.00
  147                 10.17    153.42     58.46      0.00
  149                 32.21    153.78     59.70      0.00
  151                171.93    157.26     53.62      0.00
  153                 52.56    157.34     39.49      0.00
  157                 61.63    156.84     62.28      0.00
  159                 49.17    153.73     64.01      0.00
  161                 18.80    151.62     63.96      0.00
  163                 11.21    151.19     63.34      0.00
  164                  0.00    151.19     63.34      0.00
  166                  3.09    151.19     66.38      0.00
  167                 17.33    149.45     66.92      0.00
  169                  0.00    149.45     66.92      0.00
  171                 46.81    148.44     66.05      0.00
  173                  0.00    148.42     66.04      0.00
  177                 69.22    147.96     60.65      0.00
  179                  0.00    147.92     60.63      0.00
  181                  0.00    148.01     60.67      0.00
  183                  0.00    147.94     59.34      0.00
  184                  0.00    147.12     56.82      0.00
  185                 30.52    147.58     57.01      0.00
  187                  0.00    148.25     58.82      0.00
  189                128.42    148.48     62.60      0.00
  191                 97.46    148.56     53.54      0.00
  193                 84.86    148.64     56.60      0.00
  195                  0.00    148.70     57.72      0.00
  197                 20.28    148.58     54.41      0.00
  199                141.99    144.34     63.41      0.00
  201                 53.09    143.78     62.26      0.00
  203               3568.14    143.67     61.39      0.00
  204                  0.00    148.01     55.03      0.00
  205                 77.78    144.24     53.40      0.00
  206                  0.00    142.92     61.49      0.00
  207                 82.57    143.45     58.26      0.00
  208                  0.00    142.32     54.73      0.00
  209                  1.04    141.27     62.08      0.00
  211                 10.32    140.92     58.03      0.00
  213                 16.59    140.84     57.99      0.00
  215                109.71    140.69     57.93      0.00
  217                 28.82    140.67     58.35      0.00
  219                 49.17    140.66     59.22      0.00
  225                 27.13    140.67     57.49      0.00
  229                 76.37    140.29     56.24      0.00
  231                 19.61    140.28     58.62      0.00
  237                 18.58    140.29     54.72      0.00
  239                 53.09    140.14     55.09      0.00
  241                  0.00    140.14     55.09      0.00
  243                  5.16    140.14     54.66      0.00
  247                 83.75    140.11     52.91      0.00
  249                  0.00    140.11     52.91      0.00
  251                 28.75    140.08     47.70      0.00
  253                 64.88    139.97     45.05      0.00
  255                 48.06    140.01     48.97      0.00
  257                  0.00    154.10     59.40      0.00
  259                  0.00    153.71     55.77      0.00
  261                  0.00    152.28     65.98      0.00
  263                  0.00    152.13     65.92      0.00
  265                  0.00    150.00     65.00      0.00
  267                  0.00    148.64     55.30      0.00
  269                  0.00    148.84     64.49      0.00
  271                  0.00    148.13     61.59      0.00
  273                  0.00    144.26     59.04      0.00
  275                  0.00    143.75     57.96      0.00
  River           -13116.28    220.00      0.00      0.00  Reservoir
  Lake                 0.00    167.00      0.00      0.00  Reservoir
  1                  940.74    145.22      5.77      0.00  Tank
  2                   20.79    140.01     10.19      0.00  Tank
  3                 2745.27    158.17     12.64      0.00  Tank
   
   
  Link Results at 0:10:00 hrs:
  ----------------------------------------------
                       Flow  Velocity  Headloss
  Link                  gpm       fps   /1000ft
  ----------------------------------------------
  20               -2745.27      0.11      0.00
  40                -940.74      0.04      0.00
  50                 -20.79      0.00      0.00
  60               13116.28      9.30      8.87
  101                  0.00      0.00      0.00
  103                171.48      0.27      0.02
  105               -397.52      1.13      0.46
  107                 43.30      0.12      0.01
  109                 12.97      0.02      0.00
  111               -262.39      0.74      0.21
  112                492.57      1.40      0.68
  113                -29.88      0.08      0.00
  114                125.80      0.80      0.39
  115                -21.72      0.14      0.02
  116                 72.11      0.20      0.02
  117                601.91      1.71      0.99
  119               -702.09      1.99      1.32
  120               1094.14      3.10      2.99
  121                982.53      2.79      2.45
  122                349.94      2.23      2.61
  123               9373.03      4.25      1.59
  125              13116.28      5.95      2.95
  129               3343.77      2.37      0.81
  131               3090.93      2.19      0.70
  133              -2745.27      2.80      1.37
  135                324.64      0.23      0.01
  137                 50.87      0.08      0.00
  145                273.77      1.75      1.66
  147                266.76      1.70      1.58
  149               -584.04      3.73      6.75
  151               -576.66      3.68      6.59
  153                329.00      0.93      0.32
  155                361.88      1.03      0.39
  159               -372.05      1.06      0.41
  161               -404.27      2.58      3.41
  163               -146.01      0.41      0.07
  169                198.57      1.27      0.91
  171                430.19      1.22      0.53
  173               7639.11      3.47      1.09
  175               7577.48      3.44      1.07
  177               7528.31      3.42      1.06
  179               7272.70      3.30      0.99
  180                  3.09      0.01      0.00
  181                  3.09      0.01      0.00
  183               7065.63      3.21      0.94
  185                -17.33      0.11      0.01
  186                331.07      2.11      2.36
  187               6459.86      2.93      0.80
  189               4111.41      1.87      0.34
  191              -2301.64      1.63      0.41
  193              -1637.43      1.16      0.22
  195                814.61      2.31      1.73
  197                745.39      2.11      1.47
  199               -195.35      0.55      0.12
  201               -940.74      2.67      2.26
  202                473.98      3.03      4.58
  203                173.43      1.11      0.71
  204                473.98      1.34      0.64
  205                331.07      0.94      0.33
  207                368.78      1.05      0.40
  209                138.08      0.88      0.47
  211                588.44      1.67      0.95
  213                192.98      0.55      0.12
  215                197.25      0.56      0.13
  217               -219.57      0.62      0.15
  219               -236.81      0.67      0.18
  221                236.81      1.51      1.27
  223                 70.88      0.20      0.02
  225                 91.15      0.26      0.03
  229               4111.41      2.92      1.02
  231               3789.42      2.69      0.88
  233               3568.14      2.53      0.91
  235                180.00      0.51      0.11
  237                482.79      1.37      0.66
  238                661.81      1.88      1.18
  239                261.60      0.74      0.21
  240                661.81      1.88      1.18
  241                661.81      1.88      1.18
  243                660.78      1.05      0.29
  245                330.75      0.53      0.08
  247                214.83      0.34      0.04
  249                105.12      0.17      0.01
  251                 49.17      0.10      0.00
  257                 27.13      0.08      0.00
  261                 99.33      0.63      0.25
  263                 19.61      0.06      0.00
  269                319.72      0.91      0.31
  271                 -3.34      0.02      0.00
  273                304.48      0.86      0.28
  275                 97.36      0.28      0.03
  277                  5.16      0.01      0.00
  281                 92.19      0.38      0.07
  283                154.04      0.44      0.08
  285                -79.75      0.23      0.02
  287                 88.19      0.36      0.07
  289                -20.79      0.08      0.00
  291                 64.88      0.27      0.04
  293                -45.54      0.29      0.06
  295                 74.29      0.21      0.02
  297                461.55      2.95      4.36
  299                221.75      1.42      1.12
  301                221.75      1.42      1.12
  303                239.79      1.53      1.30
  305                140.36      0.40      0.07
  307                380.16      1.08      0.42
  309                192.76      1.23      0.87
  311                  4.49      0.01      0.00
  313                438.04      1.24      0.55
  315              -2452.04      1.74      0.46
  317                 93.41      0.60      0.23
  319                 86.60      0.25      0.03
  321               7258.39      3.29      0.99
  323                168.19      0.48      0.09
  325                150.40      0.96      0.55
  329              13116.28      5.95      2.99
  330                  0.00      0.00      0.00
  333                 -0.00      0.00      0.00
  10                   0.00      0.00      0.00  Pump
  335              13116.28      0.00    -93.81  Pump
   
   
  Node Results at 0:15:00 hrs:
  --------------------------------------------------------
                     Demand      Head  Pressure  Chemical
  Node                  gpm        ft       psi      mg/L
  --------------------------------------------------------
  10                   0.00    148.35      0.59      0.00
  15                 576.66    131.20     42.98      0.00
  20                   0.00    158.26     12.68      0.00
  35                1637.43    148.09     58.75      0.00
  40                   0.00    145.33      5.82      0.00
  50                   0.00    140.02     10.19      0.00
  60                   0.00    209.08     90.59      0.00
  601                  0.00    302.91    131.25      0.00
  61                   0.00    302.91    131.25      0.00
  101                226.04    148.35     46.08      0.00
  103                158.51    148.32     45.64      0.00
  105                161.09    149.52     52.44      0.00
  107                 65.02    149.51     55.25      0.00
  109                275.37    148.32     55.47      0.00
  111                168.91    148.74     60.12      0.00
  113                 23.81    148.75     63.59      0.00
  115                 62.00    149.54     58.73      0.00
  117                140.07    152.41     60.14      0.00
  119                209.59    159.18     68.11      0.00
  120                  0.00    156.99     68.03      0.00
  121                 49.54    162.35     71.21      0.00
  123                  0.00    166.78     67.50      0.00
  125                 54.26    161.60     65.25      0.00
  127                 21.02    159.33     44.77      0.00
  129                  0.00    159.32     46.94      0.00
  131                 50.87    159.31     66.43      0.00
  139                  7.01    154.76     53.63      0.00
  141                 11.72    151.52     63.92      0.00
  143                  7.38    142.07     63.51      0.00
  145                 32.88    152.65     65.71      0.00
  147                 10.17    153.50     58.50      0.00
  149                 32.21    153.86     59.73      0.00
  151                171.93    157.34     53.66      0.00
  153                 52.56    157.42     39.53      0.00
  157                 61.63    156.92     62.32      0.00
  159                 49.17    153.81     64.05      0.00
  161                 18.80    151.70     64.00      0.00
  163                 11.21    151.27     63.38      0.00
  164                  0.00    151.27     63.38      0.00
  166                  3.09    151.27     66.41      0.00
  167                 17.33    149.53     66.96      0.00
  169                  0.00    149.53     66.96      0.00
  171                 46.81    148.52     66.09      0.00
  173                  0.00    148.50     66.08      0.00
  177                 69.22    148.04     60.68      0.00
  179                  0.00    148.00     60.66      0.00
  181                  0.00    148.10     60.70      0.00
  183                  0.00    148.03     59.37      0.00
  184                  0.00    147.20     56.85      0.00
  185                 30.52    147.66     57.05      0.00
  187                  0.00    148.33     58.86      0.00
  189                128.42    148.56     62.64      0.00
  191                 97.46    148.64     53.57      0.00
  193                 84.86    148.72     56.64      0.00
  195                  0.00    148.78     57.75      0.00
  197                 20.28    148.66     54.45      0.00
  199                141.99    144.41     63.44      0.00
  201                 53.09    143.86     62.29      0.00
  203               3568.14    143.75     61.42      0.00
  204                  0.00    148.10     55.07      0.00
  205                 77.78    144.31     53.43      0.00
  206                  0.00    142.98     61.52      0.00
  207                 82.57    143.52     58.29      0.00
  208                  0.00    142.37     54.76      0.00
  209                  1.04    141.31     62.10      0.00
  211                 10.32    140.96     58.04      0.00
  213                 16.59    140.88     58.01      0.00
  215                109.71    140.72     57.94      0.00
  217                 28.82    140.71     58.37      0.00
  219                 49.17    140.70     59.23      0.00
  225                 27.13    140.70     57.50      0.00
  229                 76.37    140.31     56.25      0.00
  231                 19.61    140.30     58.63      0.00
  237                 18.58    140.31     54.73      0.00
  239                 53.09    140.16     55.10      0.00
  241                  0.00    140.16     55.10      0.00
  243                  5.16    140.16     54.66      0.00
  247                 83.75    140.12     52.92      0.00
  249                  0.00    140.12     52.92      0.00
  251                 28.75    140.09     47.70      0.00
  253                 64.88    139.98     45.05      0.00
  255                 48.06    140.02     48.97      0.00
  257                  0.00    154.18     59.44      0.00
  259                  0.00    153.79     55.80      0.00
  261                  0.00    152.36     66.02      0.00
  263                  0.00    152.22     65.95      0.00
  265                  0.00    150.09     65.03      0.00
  267                  0.00    148.72     55.34      0.00
  269                  0.00    148.92     64.53      0.00
  271                  0.00    148.21     61.62      0.00
  273                  0.00    144.33     59.07      0.00
  275                  0.00    143.83     57.99      0.00
  River           -13113.59    220.00      0.00      0.00  Reservoir
  Lake                 0.00    167.00      0.00      0.00  Reservoir
  1                  935.70    145.33      5.82      0.00  Tank
  2                   25.49    140.02     10.19      0.00  Tank
  3                 2742.92    158.26     12.68      0.00  Tank
   
   
  Link Results at 0:15:00 hrs:
  ----------------------------------------------
                       Flow  Velocity  Headloss
  Link                  gpm       fps   /1000ft
  ----------------------------------------------
  20               -2742.92      0.11      0.00
  40                -935.70      0.04      0.00
  50                 -25.49      0.00      0.00
  60               13113.59      9.30      8.87
  101                  0.00      0.00      0.00
  103                171.46      0.27      0.02
  105               -397.50      1.13      0.46
  107                 43.29      0.12      0.01
  109                 12.95      0.02      0.00
  111               -262.41      0.74      0.21
  112                492.53      1.40      0.68
  113                -29.93      0.08      0.00
  114                125.79      0.80      0.39
  115                -21.73      0.14      0.02
  116                 72.05      0.20      0.02
  117                601.88      1.71      0.99
  119               -702.05      1.99      1.32
  120               1094.09      3.10      2.99
  121                982.49      2.79      2.45
  122                349.93      2.23      2.61
  123               9372.66      4.25      1.59
  125              13113.59      5.95      2.95
  129               3341.47      2.37      0.81
  131               3088.62      2.19      0.70
  133              -2742.92      2.80      1.36
  135                324.68      0.23      0.01
  137                 50.87      0.08      0.00
  145                273.81      1.75      1.66
  147                266.80      1.70      1.58
  149               -584.04      3.73      6.75
  151               -576.66      3.68      6.59
  153                328.96      0.93      0.32
  155                361.84      1.03      0.39
  159               -372.01      1.06      0.41
  161               -404.22      2.58      3.41
  163               -146.02      0.41      0.07
  169                198.58      1.27      0.92
  171                430.14      1.22      0.53
  173               7638.84      3.47      1.09
  175               7577.21      3.44      1.07
  177               7528.04      3.42      1.06
  179               7272.46      3.30      0.99
  180                  3.09      0.01      0.00
  181                  3.09      0.01      0.00
  183               7065.44      3.21      0.94
  185                -17.33      0.11      0.01
  186                331.21      2.11      2.36
  187               6459.91      2.93      0.80
  189               4115.43      1.87      0.35
  191              -2297.66      1.63      0.40
  193              -1637.43      1.16      0.22
  195                810.58      2.30      1.72
  197                741.36      2.10      1.46
  199               -194.34      0.55      0.12
  201               -935.70      2.65      2.24
  202                474.66      3.03      4.60
  203                173.97      1.11      0.72
  204                474.66      1.35      0.64
  205                331.21      0.94      0.33
  207                368.32      1.04      0.40
  209                138.20      0.88      0.47
  211                588.20      1.67      0.95
  213                193.01      0.55      0.12
  215                197.08      0.56      0.13
  217               -219.61      0.62      0.15
  219               -236.78      0.67      0.18
  221                236.78      1.51      1.27
  223                 70.86      0.20      0.02
  225                 91.14      0.26      0.03
  229               4115.43      2.92      1.02
  231               3792.11      2.69      0.88
  233               3568.14      2.53      0.91
  235                181.33      0.51      0.11
  237                484.75      1.38      0.66
  238                666.52      1.89      1.20
  239                264.34      0.75      0.22
  240                666.52      1.89      1.20
  241                666.52      1.89      1.20
  243                665.48      1.06      0.29
  245                331.92      0.53      0.08
  247                214.83      0.34      0.04
  249                105.12      0.17      0.01
  251                 49.17      0.10      0.00
  257                 27.13      0.08      0.00
  261                100.50      0.64      0.26
  263                 19.61      0.06      0.00
  269                323.25      0.92      0.31
  271                 -4.52      0.03      0.00
  273                309.19      0.88      0.29
  275                 99.12      0.28      0.03
  277                  5.16      0.01      0.00
  281                 93.95      0.38      0.08
  283                156.98      0.45      0.08
  285                -80.95      0.23      0.02
  287                 91.15      0.37      0.07
  289                -25.49      0.10      0.01
  291                 64.88      0.27      0.04
  293                -47.28      0.30      0.06
  295                 76.03      0.22      0.02
  297                461.52      2.95      4.36
  299                221.74      1.42      1.12
  301                221.74      1.42      1.12
  303                239.78      1.53      1.30
  305                140.36      0.40      0.07
  307                380.14      1.08      0.42
  309                192.72      1.23      0.87
  311                  4.36      0.01      0.00
  313                437.85      1.24      0.55
  315              -2448.01      1.74      0.45
  317                 93.46      0.60      0.23
  319                 87.87      0.25      0.03
  321               7258.16      3.29      0.99
  323                170.88      0.48      0.10
  325                150.35      0.96      0.55
  329              13113.59      5.95      2.99
  330                  0.00      0.00      0.00
  333                 -0.00      0.00      0.00
  10                   0.00      0.00      0.00  Pump
  335              13113.59      0.00    -93.83  Pump
   
   
  Node Results at 0:20:00 hrs:
  --------------------------------------------------------
                     Demand      Head  Pressure  Chemical
  Node                  gpm        ft       psi      mg/L
  --------------------------------------------------------
  10                   0.00    148.43      0.62      0.00
  15                 576.66    131.28     43.02      0.00
  20                   0.00    158.35     12.72      0.00
  35                1637.43    148.17     58.79      0.00
  40                   0.00    145.44      5.87      0.00
  50                   0.00    140.02     10.19      0.00
  60                   0.00    209.08     90.60      0.00
  601                  0.00    302.94    131.26      0.00
  61                   0.00    302.94    131.26      0.00
  101                226.04    148.43     46.12      0.00
  103                158.51    148.40     45.67      0.00
  105                161.09    149.60     52.47      0.00
  107                 65.02    149.59     55.28      0.00
  109                275.37    148.40     55.51      0.00
  111                168.91    148.83     60.15      0.00
  113                 23.81    148.83     63.62      0.00
  115                 62.00    149.62     58.76      0.00
  117                140.07    152.49     60.18      0.00
  119                209.59    159.26     68.14      0.00
  120                  0.00    157.08     68.06      0.00
  121                 49.54    162.43     71.25      0.00
  123                  0.00    166.86     67.53      0.00
  125                 54.26    161.68     65.29      0.00
  127                 21.02    159.42     44.81      0.00
  129                  0.00    159.41     46.97      0.00
  131                 50.87    159.39     66.46      0.00
  139                  7.01    154.84     53.66      0.00
  141                 11.72    151.60     63.96      0.00
  143                  7.38    142.16     63.55      0.00
  145                 32.88    152.74     65.75      0.00
  147                 10.17    153.58     58.53      0.00
  149                 32.21    153.94     59.77      0.00
  151                171.93    157.42     53.70      0.00
  153                 52.56    157.51     39.56      0.00
  157                 61.63    157.00     62.35      0.00
  159                 49.17    153.89     64.08      0.00
  161                 18.80    151.78     64.03      0.00
  163                 11.21    151.35     63.41      0.00
  164                  0.00    151.35     63.41      0.00
  166                  3.09    151.35     66.45      0.00
  167                 17.33    149.61     66.99      0.00
  169                  0.00    149.61     66.99      0.00
  171                 46.81    148.60     66.12      0.00
  173                  0.00    148.59     66.12      0.00
  177                 69.22    148.13     60.72      0.00
  179                  0.00    148.09     60.70      0.00
  181                  0.00    148.18     60.74      0.00
  183                  0.00    148.11     59.41      0.00
  184                  0.00    147.28     56.88      0.00
  185                 30.52    147.74     57.08      0.00
  187                  0.00    148.41     58.89      0.00
  189                128.42    148.65     62.68      0.00
  191                 97.46    148.72     53.61      0.00
  193                 84.86    148.80     56.68      0.00
  195                  0.00    148.86     57.79      0.00
  197                 20.28    148.74     54.48      0.00
  199                141.99    144.48     63.47      0.00
  201                 53.09    143.93     62.32      0.00
  203               3568.14    143.82     61.45      0.00
  204                  0.00    148.18     55.11      0.00
  205                 77.78    144.39     53.46      0.00
  206                  0.00    143.04     61.55      0.00
  207                 82.57    143.59     58.32      0.00
  208                  0.00    142.42     54.78      0.00
  209                  1.04    141.35     62.11      0.00
  211                 10.32    140.99     58.06      0.00
  213                 16.59    140.91     58.02      0.00
  215                109.71    140.76     57.96      0.00
  217                 28.82    140.74     58.38      0.00
  219                 49.17    140.73     59.25      0.00
  225                 27.13    140.74     57.51      0.00
  229                 76.37    140.33     56.26      0.00
  231                 19.61    140.33     58.64      0.00
  237                 18.58    140.33     54.74      0.00
  239                 53.09    140.18     55.11      0.00
  241                  0.00    140.18     55.11      0.00
  243                  5.16    140.18     54.67      0.00
  247                 83.75    140.14     52.92      0.00
  249                  0.00    140.14     52.92      0.00
  251                 28.75    140.11     47.71      0.00
  253                 64.88    139.99     45.06      0.00
  255                 48.06    140.03     48.98      0.00
  257                  0.00    154.26     59.48      0.00
  259                  0.00    153.87     55.84      0.00
  261                  0.00    152.45     66.05      0.00
  263                  0.00    152.30     65.99      0.00
  265                  0.00    150.17     65.07      0.00
  267                  0.00    148.80     55.38      0.00
  269                  0.00    149.00     64.56      0.00
  271                  0.00    148.30     61.66      0.00
  273                  0.00    144.41     59.10      0.00
  275                  0.00    143.90     58.02      0.00
  River           -13110.91    220.00      0.00      0.00  Reservoir
  Lake                 0.00    167.00      0.00      0.00  Reservoir
  1                  930.77    145.44      5.87      0.00  Tank
  2                   30.04    140.02     10.19      0.00  Tank
  3                 2740.61    158.35     12.72      0.00  Tank
   
   
  Link Results at 0:20:00 hrs:
  ----------------------------------------------
                       Flow  Velocity  Headloss
  Link                  gpm       fps   /1000ft
  ----------------------------------------------
  20               -2740.61      0.11      0.00
  40                -930.77      0.04      0.00
  50                 -30.04      0.00      0.00
  60               13110.91      9.30      8.87
  101                  0.00      0.00      0.00
  103                171.44      0.27      0.02
  105               -397.48      1.13      0.46
  107                 43.27      0.12      0.01
  109                 12.94      0.02      0.00
  111               -262.43      0.74      0.21
  112                492.49      1.40      0.68
  113                -29.97      0.09      0.00
  114                125.78      0.80      0.39
  115                -21.75      0.14      0.02
  116                 71.99      0.20      0.02
  117                601.85      1.71      0.99
  119               -702.01      1.99      1.32
  120               1094.03      3.10      2.99
  121                982.43      2.79      2.45
  122                349.91      2.23      2.61
  123               9372.25      4.25      1.59
  125              13110.91      5.95      2.95
  129               3339.21      2.37      0.81
  131               3086.36      2.19      0.70
  133              -2740.61      2.80      1.36
  135                324.73      0.23      0.01
  137                 50.87      0.08      0.00
  145                273.85      1.75      1.66
  147                266.84      1.70      1.58
  149               -584.04      3.73      6.75
  151               -576.66      3.68      6.59
  153                328.91      0.93      0.32
  155                361.79      1.03      0.39
  159               -371.97      1.06      0.41
  161               -404.18      2.58      3.41
  163               -146.03      0.41      0.07
  169                198.59      1.27      0.92
  171                430.09      1.22      0.53
  173               7638.54      3.47      1.09
  175               7576.91      3.44      1.07
  177               7527.74      3.42      1.06
  179               7272.19      3.30      0.99
  180                  3.09      0.01      0.00
  181                  3.09      0.01      0.00
  183               7065.20      3.21      0.94
  185                -17.33      0.11      0.01
  186                331.34      2.11      2.36
  187               6459.92      2.93      0.80
  189               4119.33      1.87      0.35
  191              -2293.78      1.63      0.40
  193              -1637.43      1.16      0.22
  195                806.63      2.29      1.70
  197                737.41      2.09      1.44
  199               -193.36      0.55      0.12
  201               -930.77      2.64      2.22
  202                475.32      3.03      4.61
  203                174.50      1.11      0.72
  204                475.32      1.35      0.64
  205                331.34      0.94      0.33
  207                367.86      1.04      0.40
  209                138.30      0.88      0.47
  211                587.96      1.67      0.95
  213                193.03      0.55      0.12
  215                196.92      0.56      0.12
  217               -219.65      0.62      0.15
  219               -236.75      0.67      0.18
  221                236.75      1.51      1.27
  223                 70.84      0.20      0.02
  225                 91.12      0.26      0.03
  229               4119.33      2.92      1.03
  231               3794.72      2.69      0.88
  233               3568.14      2.53      0.91
  235                182.62      0.52      0.11
  237                486.65      1.38      0.67
  238                671.07      1.90      1.21
  239                267.00      0.76      0.22
  240                671.07      1.90      1.21
  241                671.07      1.90      1.21
  243                670.04      1.07      0.30
  245                333.05      0.53      0.08
  247                214.83      0.34      0.04
  249                105.12      0.17      0.01
  251                 49.17      0.10      0.00
  257                 27.13      0.08      0.00
  261                101.64      0.65      0.26
  263                 19.61      0.06      0.00
  269                326.67      0.93      0.32
  271                 -5.65      0.04      0.00
  273                313.74      0.89      0.30
  275                100.82      0.29      0.04
  277                  5.16      0.01      0.00
  281                 95.66      0.39      0.08
  283                159.83      0.45      0.08
  285                -82.12      0.23      0.02
  287                 94.03      0.38      0.08
  289                -30.04      0.12      0.01
  291                 64.88      0.27      0.04
  293                -48.96      0.31      0.07
  295                 77.71      0.22      0.02
  297                461.50      2.95      4.36
  299                221.73      1.42      1.12
  301                221.73      1.42      1.12
  303                239.77      1.53      1.30
  305                140.35      0.40      0.07
  307                380.12      1.08      0.42
  309                192.68      1.23      0.87
  311                  4.24      0.01      0.00
  313                437.67      1.24      0.55
  315              -2444.06      1.73      0.45
  317                 93.51      0.60      0.23
  319                 89.11      0.25      0.03
  321               7257.88      3.29      0.99
  323                173.49      0.49      0.10
  325                150.29      0.96      0.55
  329              13110.91      5.95      2.99
  330                  0.00      0.00      0.00
  333                 -0.00      0.00      0.00
  10                   0.00      0.00      0.00  Pump
  335              13110.91      0.00    -93.86  Pump
   
   
  Node Results at 0:25:00 hrs:
  --------------------------------------------------------
                     Demand      Head  Pressure  Chemical
  Node                  gpm        ft       psi      mg/L
  --------------------------------------------------------
  10                   0.00    148.52      0.66      0.00
  15                 576.66    131.37     43.06      0.00
  20                   0.00    158.43     12.75      0.00
  35                1637.43    148.26     58.82      0.00
  40                   0.00    145.55      5.92      0.00
  50                   0.00    140.04     10.20      0.00
  60                   0.00    209.09     90.60      0.00
  601                  0.00    302.97    131.28      0.00
  61                   0.00    302.97    131.28      0.00
  101                226.04    148.52     46.15      0.00
  103                158.51    148.48     45.71      0.00
  105                161.09    149.68     52.51      0.00
  107                 65.02    149.67     55.32      0.00
  109                275.37    148.48     55.54      0.00
  111                168.91    148.91     60.19      0.00
  113                 23.81    148.92     63.66      0.00
  115                 62.00    149.70     58.80      0.00
  117                140.07    152.57     60.22      0.00
  119                209.59    159.34     68.18      0.00
  120                  0.00    157.16     68.10      0.00
  121                 49.54    162.51     71.28      0.00
  123                  0.00    166.94     67.57      0.00
  125                 54.26    161.76     65.32      0.00
  127                 21.02    159.50     44.85      0.00
  129                  0.00    159.49     47.01      0.00
  131                 50.87    159.48     66.50      0.00
  139                  7.01    154.93     53.70      0.00
  141                 11.72    151.68     63.99      0.00
  143                  7.38    142.24     63.58      0.00
  145                 32.88    152.82     65.78      0.00
  147                 10.17    153.67     58.57      0.00
  149                 32.21    154.02     59.81      0.00
  151                171.93    157.50     53.73      0.00
  153                 52.56    157.59     39.60      0.00
  157                 61.63    157.08     62.39      0.00
  159                 49.17    153.97     64.12      0.00
  161                 18.80    151.86     64.07      0.00
  163                 11.21    151.44     63.45      0.00
  164                  0.00    151.44     63.45      0.00
  166                  3.09    151.44     66.48      0.00
  167                 17.33    149.70     67.03      0.00
  169                  0.00    149.70     67.03      0.00
  171                 46.81    148.69     66.16      0.00
  173                  0.00    148.67     66.15      0.00
  177                 69.22    148.21     60.75      0.00
  179                  0.00    148.17     60.74      0.00
  181                  0.00    148.26     60.78      0.00
  183                  0.00    148.19     59.45      0.00
  184                  0.00    147.36     56.92      0.00
  185                 30.52    147.83     57.12      0.00
  187                  0.00    148.50     58.93      0.00
  189                128.42    148.73     62.71      0.00
  191                 97.46    148.80     53.64      0.00
  193                 84.86    148.88     56.71      0.00
  195                  0.00    148.95     57.82      0.00
  197                 20.28    148.83     54.52      0.00
  199                141.99    144.56     63.50      0.00
  201                 53.09    144.00     62.35      0.00
  203               3568.14    143.89     61.48      0.00
  204                  0.00    148.26     55.14      0.00
  205                 77.78    144.46     53.50      0.00
  206                  0.00    143.10     61.57      0.00
  207                 82.57    143.65     58.35      0.00
[...]
  219                 67.35    137.98     58.05      0.00
  225                 37.16    137.99     56.32      0.00
  229                104.61    138.17     55.32      0.00
  231                 26.86    138.17     57.70      0.00
  237                 25.44    138.33     53.87      0.00
  239                 72.71    138.33     54.30      0.00
  241                  0.00    138.33     54.30      0.00
  243                  7.07    138.33     53.87      0.00
  247                114.72    138.33     52.14      0.00
  249                  0.00    138.33     52.14      0.00
  251                 39.38    138.35     46.95      0.00
  253                 88.87    138.52     44.42      0.00
  255                 65.84    138.60     48.36      0.00
  257                  0.00    151.09     58.10      0.00
  259                  0.00    150.63     54.44      0.00
  261                  0.00    148.99     64.56      0.00
  263                  0.00    148.81     64.48      0.00
  265                  0.00    147.71     64.00    130.00
  267                  0.00    145.97     54.15    130.00
  269                  0.00    146.47     63.46    130.00
  271                  0.00    146.03     60.68    130.00
  273                  0.00    140.54     57.43    130.00
  275                  0.00    139.83     56.26    130.00
  River           -13222.89    220.00      0.00      0.00  Reservoir
  Lake                 0.00    167.00      0.00      0.00  Reservoir
  1                 -728.86    147.69      6.84      0.00  Tank
  2                 -401.99    139.65     10.03      0.00  Tank
  3                  665.18    159.73     13.31      0.00  Tank
   
   
  Link Results at 23:55:00 hrs:
  ----------------------------------------------
                       Flow  Velocity  Headloss
  Link                  gpm       fps   /1000ft
  ----------------------------------------------
  20                -665.18      0.03      0.00
  40                 728.86      0.03      0.00
  50                 401.99      0.02      0.00
  60               13222.89      9.38      9.01
  101                  0.00      0.00      0.00
  103                132.13      0.21      0.01
  105               -441.75      1.25      0.56
  107                 -4.77      0.01      0.00
  109                -84.98      0.14      0.01
  111               -462.17      1.31      0.61
  112                440.31      1.25      0.55
  113               -178.85      0.51      0.10
  114                 95.08      0.61      0.23
  115                -93.84      0.60      0.23
  116               -116.38      0.33      0.05
  117                657.63      1.87      1.17
  119               -714.16      2.03      1.36
  120               1196.49      3.39      3.53
  121               1063.70      3.02      2.84
  122                367.16      2.34      2.86
  123               9538.83      4.33      1.64
  125              11239.90      5.10      2.22
  129               1266.06      0.90      0.13
  131                992.61      0.70      0.09
  133               -665.18      0.68      0.10
  135                298.65      0.21      0.01
  137                 69.68      0.11      0.00
  145                228.96      1.46      1.19
  147                219.36      1.40      1.10
  149               -319.01      2.04      2.20
  151               -308.90      1.97      2.07
  153                115.70      0.33      0.05
  155                160.74      0.46      0.09
  159               -174.67      0.50      0.10
  161               -218.80      1.40      1.09
  163               -127.12      0.36      0.06
  169                199.11      1.27      0.92
  171                327.18      0.93      0.32
  173               7728.06      3.51      1.11
  175               7643.65      3.47      1.09
  177               7576.29      3.44      1.07
  179               7286.74      3.31      0.99
  180                  4.24      0.01      0.00
  181                  4.24      0.01      0.00
  183               7047.83      3.20      0.94
  185                -23.73      0.15      0.02
  186                289.91      1.85      1.84
  187               6395.67      2.90      0.78
  189               4848.75      2.20      0.47
  191              -1482.79      1.05      0.18
  193              -1991.49      1.41      0.31
  195               -392.73      1.11      0.45
  197               -487.55      1.38      0.67
  199                241.30      0.68      0.18
  201                728.86      2.07      1.41
  202                550.91      3.52      6.06
  203                302.81      1.93      2.00
  204                550.91      1.56      0.84
  205                289.91      0.82      0.26
  207                 61.51      0.17      0.01
  209                211.85      1.35      1.03
  211                628.43      1.78      1.07
  213                 78.06      0.22      0.02
  215                -63.19      0.18      0.02
  217               -313.70      0.89      0.30
  219               -263.80      0.75      0.21
  221                263.80      1.68      1.55
  223               -102.14      0.29      0.04
  225                -74.37      0.21      0.02
  229               4848.75      3.44      1.39
  231               4509.09      3.20      1.21
  233               4436.76      3.15      1.37
  235                145.18      0.41      0.07
  237                477.06      1.35      0.64
  238                476.06      1.35      0.64
  239                112.10      0.32      0.04
  240                476.06      1.35      0.64
  241                476.06      1.35      0.64
  243                474.64      0.76      0.16
  245                362.39      0.58      0.10
  247                294.26      0.47      0.06
  249                143.99      0.23      0.02
  251                 67.35      0.14      0.01
  257                 37.16      0.11      0.01
  261                 45.41      0.29      0.06
  263                 26.86      0.08      0.00
  269                 98.11      0.28      0.03
  271                 86.07      0.55      0.19
  273                -13.40      0.04      0.00
  275                -27.90      0.08      0.00
  277                  7.07      0.02      0.00
  281                -34.98      0.14      0.01
  283                -58.21      0.17      0.01
  285                  3.96      0.01      0.00
  287               -153.66      0.63      0.19
  289                401.99      1.64      1.14
  291                 88.87      0.36      0.07
  293                 93.63      0.60      0.23
  295                -54.25      0.15      0.01
  297                499.95      3.19      5.06
  299                240.34      1.53      1.30
  301                240.34      1.53      1.30
  303                259.62      1.66      1.50
  305                157.68      0.45      0.08
  307                417.29      1.18      0.50
  309                219.32      1.40      1.10
  311               -282.51      0.80      0.24
  313                512.46      1.45      0.73
  315              -1598.76      1.13      0.21
  317                112.49      0.72      0.32
  319                 32.68      0.09      0.00
  321               7267.15      3.30      0.99
  323                 -0.39      0.00      0.00
  325                115.97      0.74      0.34
  329              13222.89      6.00      3.04
  330                  0.00      0.00      0.00
  333                 -0.00      0.00      0.00
  10                   0.00      0.00      0.00  Pump
  335              13222.89      0.00    -92.87  Pump
   
   
  Node Results at 24:00:00 hrs:
  --------------------------------------------------------
                     Demand      Head  Pressure  Chemical
  Node                  gpm        ft       psi      mg/L
  --------------------------------------------------------
  10                   0.00    149.87      1.25      0.00
  15                 576.66    132.67     43.62      0.00
  20                   0.00    159.75     13.32      0.00
  35                1637.43    149.65     59.43    103.88
  40                   0.00    147.60      6.80      0.00
  50                   0.00    139.52      9.97      0.00
  60                   0.00    209.15     90.63      0.00
  601                  0.00    303.41    131.47      0.00
  61                   0.00    303.41    131.47      0.00
  101                226.04    149.87     46.74      0.00
  103                158.51    149.84     46.29      0.00
  105                161.09    151.03     53.09      0.00
  107                 65.02    151.02     55.91      0.00
  109                275.37    149.84     56.13      0.00
  111                168.91    150.27     60.78      0.00
  113                 23.81    150.28     64.25      0.00
  115                 62.00    151.05     59.39      0.00
  117                140.07    153.90     60.79      0.00
  119                209.59    160.64     68.74      0.00
  120                  0.00    158.47     68.66      0.00
  121                 49.54    163.79     71.84      0.00
  123                  0.00    168.19     68.11      0.00
  125                 54.26    163.05     65.88      0.00
  127                 21.02    160.81     45.41      0.00
  129                  0.00    160.80     47.58      0.00
  131                 50.87    160.78     67.07      0.00
  139                  7.01    156.23     54.26      0.00
  141                 11.72    152.98     64.55      0.00
  143                  7.38    143.54     64.15      0.00
  145                 32.88    154.12     66.35      0.00
  147                 10.17    154.97     59.13      0.00
  149                 32.21    155.32     60.37      0.00
  151                171.93    158.80     54.29      0.00
  153                 52.56    158.88     40.16      0.00
  157                 61.63    158.39     62.96      0.00
  159                 49.17    155.30     64.69      0.00
  161                 18.80    153.20     64.65      0.00
  163                 11.21    152.78     64.03      0.00
  164                  0.00    152.78     64.03      0.00
  166                  3.09    152.78     67.07      0.00
  167                 17.33    151.05     67.62    130.00
  169                  0.00    151.05     67.62    130.00
  171                 46.81    150.04     66.75    130.00
  173                  0.00    150.03     66.74    130.00
  177                 69.22    149.62     61.36      0.00
  179                  0.00    149.58     61.35      0.00
  181                  0.00    149.65     61.38    104.36
  183                  0.00    149.60     60.06     26.41
  184                  0.00    148.69     57.50     60.31
  185                 30.52    149.18     57.71     60.74
  187                  0.00    149.86     59.52     95.00
  189                128.42    150.10     63.31    130.00
  191                 97.46    150.17     54.24     67.58
  193                 84.86    150.25     57.30     67.23
  195                  0.00    150.31     58.41      0.00
  197                 20.28    150.19     55.11      0.00
  199                141.99    145.76     64.02    130.00
  201                 53.09    145.18     62.87    130.00
  203               3568.14    145.07     61.99    129.99
  204                  0.00    149.62     55.73     95.42
  205                 77.78    145.62     54.00     70.42
  206                  0.00    143.96     61.94     60.42
  207                 82.57    144.67     58.79     62.76
  208                  0.00    143.15     55.09     58.96
  209                  1.04    141.74     62.28     59.84
  211                 10.32    141.27     58.18     60.83
  213                 16.59    141.18     58.14     34.72
  215                109.71    141.03     58.07      0.00
  217                 28.82    141.01     58.50      0.00
  219                 49.17    141.00     59.36      0.00
  225                 27.13    141.00     57.63      0.00
  229                 76.37    140.30     56.24      0.00
  231                 19.61    140.30     58.62      0.00
  237                 18.58    140.28     54.72      0.00
  239                 53.09    140.02     55.04      0.00
  241                  0.00    140.01     55.04      0.00
  243                  5.16    140.01     54.60      0.00
  247                 83.75    139.95     52.84      0.00
  249                  0.00    139.95     52.84      0.00
  251                 28.75    139.88     47.61      0.00
  253                 64.88    139.61     44.90      0.00
  255                 48.06    139.66     48.81      0.00
  257                  0.00    155.67     60.08      0.00
  259                  0.00    155.28     56.45      0.00
  261                  0.00    153.86     66.67      0.00
  263                  0.00    153.72     66.60      0.00
  265                  0.00    151.60     65.69    130.00
  267                  0.00    150.25     56.00    130.00
  269                  0.00    150.45     65.19    130.00
  271                  0.00    149.76     62.29    130.00
  273                  0.00    145.65     59.64    130.00
  275                  0.00    145.13     58.55    130.00
  River           -13065.78    220.00      0.00      0.00  Reservoir
  Lake                 0.00    167.00      0.00      0.00  Reservoir
  1                  796.46    147.60      6.80      0.00  Tank
  2                  135.83    139.52      9.97      0.00  Tank
  3                 2724.00    159.75     13.32      0.00  Tank
   
   
  Link Results at 24:00:00 hrs:
  ----------------------------------------------
                       Flow  Velocity  Headloss
  Link                  gpm       fps   /1000ft
  ----------------------------------------------
  20               -2724.00      0.11      0.00
  40                -796.46      0.03      0.00
  50                -135.83      0.01      0.00
  60               13065.78      9.27      8.81
  101                  0.00      0.00      0.00
  103                170.34      0.27      0.02
  105               -396.38      1.12      0.46
  107                 42.51      0.12      0.01
  109                 11.83      0.02      0.00
  111               -263.54      0.75      0.21
  112                489.96      1.39      0.68
  113                -32.33      0.09      0.00
  114                125.04      0.80      0.39
  115                -22.51      0.14      0.02
  116                 68.90      0.20      0.02
  117                599.98      1.70      0.98
  119               -699.51      1.98      1.31
  120               1090.70      3.09      2.98
  121                979.46      2.78      2.44
  122                348.87      2.23      2.60
  123               9344.86      4.24      1.58
  125              13065.78      5.93      2.93
  129               3322.51      2.36      0.80
  131               3069.90      2.18      0.69
  133              -2724.00      2.78      1.35
  135                324.88      0.23      0.01
  137                 50.87      0.08      0.00
  145                274.01      1.75      1.66
  147                267.00      1.70      1.58
  149               -584.04      3.73      6.75
  151               -576.66      3.68      6.59
  153                328.76      0.93      0.32
  155                361.64      1.03      0.39
  159               -371.81      1.05      0.41
  161               -404.03      2.58      3.41
  163               -145.79      0.41      0.07
  169                198.35      1.27      0.91
  171                430.17      1.22      0.53
  173               7614.40      3.46      1.08
  175               7552.77      3.43      1.06
  177               7503.60      3.41      1.05
  179               7249.07      3.29      0.99
  180                  3.09      0.01      0.00
  181                  3.09      0.01      0.00
  183               7043.19      3.20      0.93
  185                -17.33      0.11      0.01
  186                333.66      2.13      2.39
  187               6444.63      2.93      0.79
  189               4209.55      1.91      0.36
  191              -2188.27      1.55      0.37
  193              -1637.43      1.16      0.22
  195                699.15      1.98      1.31
  197                629.92      1.79      1.08
  199               -166.54      0.47      0.09
  201               -796.46      2.26      1.66
  202                490.88      3.13      4.89
  203                187.75      1.20      0.82
  204                490.88      1.39      0.68
  205                333.66      0.95      0.33
  207                354.29      1.01      0.37
  209                140.98      0.90      0.49
  211                581.23      1.65      0.93
  213                192.68      0.55      0.12
  215                190.77      0.54      0.12
  217               -220.57      0.63      0.15
  219               -235.73      0.67      0.17
  221                235.73      1.50      1.26
  223                 69.57      0.20      0.02
  225                 89.85      0.25      0.03
  229               4209.55      2.99      1.07
  231               3854.20      2.73      0.91
  233               3568.14      2.53      0.91
  235                213.36      0.61      0.15
  237                531.82      1.51      0.79
  238                776.86      2.20      1.59
  239                327.62      0.93      0.32
  240                776.86      2.20      1.59
  241                776.86      2.20      1.59
  243                775.83      1.24      0.39
  245                358.56      0.57      0.09
  247                214.83      0.34      0.04
  249                105.12      0.17      0.01
  251                 49.17      0.10      0.00
  257                 27.13      0.08      0.00
  261                127.14      0.81      0.40
  263                 19.61      0.06      0.00
  269                406.95      1.15      0.48
  271                -31.16      0.20      0.03
  273                419.53      1.19      0.51
  275                140.44      0.40      0.07
  277                  5.16      0.01      0.00
  281                135.28      0.55      0.15
  283                226.00      0.64      0.16
  285               -109.39      0.31      0.04
  287                160.92      0.66      0.21
  289               -135.83      0.55      0.15
  291                 64.88      0.27      0.04
  293                -87.86      0.56      0.20
  295                116.61      0.33      0.05
  297                460.10      2.94      4.34
  299                221.06      1.41      1.12
  301                221.06      1.41      1.12
  303                239.04      1.53      1.29
  305                139.88      0.40      0.07
  307                378.92      1.07      0.42
  309                191.58      1.22      0.86
  311                 -0.80      0.00      0.00
  313                432.92      1.23      0.54
  315              -2336.58      1.66      0.42
  317                 94.64      0.60      0.23
  319                118.72      0.34      0.05
  321               7234.76      3.28      0.98
  323                232.97      0.66      0.17
  325                148.31      0.95      0.53
  329              13065.78      5.93      2.97
  330                  0.00      0.00      0.00
  333                 -0.00      0.00      0.00
  10                   0.00      0.00      0.00  Pump
  335              13065.78      0.00    -94.25  Pump
   
  Analysis ended Wed May 06 17:19:31 2020
