  Page 1                                    Wed May 06 17:20:09 2020

  ******************************************************************
  *                           E P A N E T                          *
  *                   Hydraulic and Water Quality                  *
  *                   Analysis for Pipe Networks                   *
  *                         Version 2.00.12                        *
  ******************************************************************
  
  Analysis begun Wed May 06 17:20:09 2020

   
  Hydraulic Status:
  -----------------------------------------------------------------------
     0:00:00: Balanced after 5 trials
     0:00:00: Reservoir River is emptying
     0:00:00: Reservoir Lake is closed
     0:00:00: Tank 1 is filling at 13.10 ft
     0:00:00: Tank 2 is emptying at 23.50 ft
     0:00:00: Tank 3 is filling at 29.00 ft
   
     0:05:00: Balanced after 2 trials
   
     0:10:00: Balanced after 2 trials
   
     0:15:00: Balanced after 2 trials
   
     0:20:00: Balanced after 2 trials
   
     0:25:00: Balanced after 2 trials
   
     0:30:00: Balanced after 2 trials
   
     0:35:00: Balanced after 2 trials
   
     0:40:00: Balanced after 2 trials
   
     0:45:00: Balanced after 2 trials
   
     0:50:00: Balanced after 2 trials
   
     0:55:00: Balanced after 2 trials
   
     1:00:00: Pump 10 changed by timer control
     1:00:00: Balanced after 7 trials
     1:00:00: Reservoir Lake is emptying
     1:00:00: Pump 10 changed from closed to open
   
     1:05:00: Balanced after 2 trials
   
     1:10:00: Balanced after 2 trials
   
     1:15:00: Balanced after 2 trials
   
     1:20:00: Balanced after 2 trials
   
     1:25:00: Balanced after 2 trials
   
     1:30:00: Balanced after 2 trials
   
     1:35:00: Balanced after 2 trials
   
     1:40:00: Balanced after 2 trials
   
     1:45:00: Balanced after 2 trials
   
     1:50:00: Balanced after 2 trials
   
     1:55:00: Balanced after 2 trials
   
     2:00:00: Balanced after 4 trials
     2:00:00: Tank 2 is filling at 21.39 ft
   
     2:05:00: Balanced after 1 trials
   
     2:10:00: Balanced after 1 trials
   
     2:15:00: Balanced after 1 trials
   
     2:20:00: Balanced after 1 trials
   
     2:25:00: Balanced after 1 trials
   
     2:30:00: Balanced after 1 trials
   
     2:35:00: Balanced after 1 trials
   
     2:40:00: Balanced after 1 trials
   
     2:45:00: Balanced after 1 trials
   
     2:50:00: Balanced after 1 trials
   
     2:55:00: Balanced after 1 trials
   
     3:00:00: Balanced after 3 trials
   
     3:05:00: Balanced after 1 trials
   
     3:10:00: Balanced after 1 trials
   
     3:15:00: Balanced after 1 trials
   
     3:20:00: Balanced after 1 trials
   
     3:25:00: Balanced after 1 trials
   
     3:30:00: Balanced after 1 trials
   
     3:35:00: Balanced after 1 trials
   
     3:40:00: Balanced after 1 trials
   
     3:45:00: Balanced after 1 trials
   
     3:50:00: Balanced after 1 trials
   
     3:55:00: Balanced after 1 trials
   
     4:00:00: Balanced after 3 trials
   
     4:05:00: Balanced after 1 trials
   
     4:10:00: Balanced after 1 trials
   
     4:15:00: Balanced after 1 trials
   
     4:20:00: Balanced after 1 trials
   
     4:25:00: Balanced after 1 trials
   
     4:26:24: Pump 335 changed by Tank 1 control
     4:26:24: Pipe 330 changed by Tank 1 control
     4:26:24: Balanced after 4 trials
     4:26:24: Pipe 330 changed from closed to open
     4:26:24: Pump 335 changed from open to closed
   
     4:30:00: Balanced after 1 trials
   
     4:35:00: Balanced after 2 trials
   
     4:40:00: Balanced after 2 trials
   
     4:45:00: Balanced after 2 trials
   
     4:50:00: Balanced after 2 trials
   
     4:55:00: Balanced after 2 trials
   
     5:00:00: Balanced after 3 trials
     5:00:00: Tank 3 is emptying at 34.48 ft
   
     5:05:00: Balanced after 2 trials
   
     5:10:00: Balanced after 2 trials
   
     5:15:00: Balanced after 2 trials
   
     5:20:00: Balanced after 2 trials
   
     5:25:00: Balanced after 2 trials
   
     5:30:00: Balanced after 2 trials
   
     5:35:00: Balanced after 2 trials
   
     5:40:00: Balanced after 2 trials
   
     5:45:00: Balanced after 2 trials
   
     5:50:00: Balanced after 2 trials
   
     5:55:00: Balanced after 2 trials
   
     6:00:00: Balanced after 4 trials
     6:00:00: Tank 3 is filling at 34.29 ft
   
     6:05:00: Balanced after 2 trials
   
     6:10:00: Balanced after 2 trials
   
     6:15:00: Balanced after 2 trials
   
     6:20:00: Balanced after 2 trials
   
     6:25:00: Balanced after 2 trials
   
     6:30:00: Balanced after 2 trials
   
     6:35:00: Balanced after 2 trials
   
     6:40:00: Balanced after 2 trials
   
     6:45:00: Balanced after 2 trials
   
     6:50:00: Balanced after 2 trials
   
     6:55:00: Balanced after 2 trials
   
     7:00:00: Balanced after 3 trials
   
     7:05:00: Balanced after 2 trials
   
     7:10:00: Balanced after 2 trials
   
     7:15:00: Balanced after 2 trials
   
     7:20:00: Balanced after 2 trials
   
     7:25:00: Balanced after 2 trials
   
     7:30:00: Balanced after 2 trials
   
     7:35:00: Balanced after 2 trials
   
     7:40:00: Balanced after 2 trials
   
     7:45:00: Balanced after 2 trials
   
     7:50:00: Balanced after 2 trials
   
     7:55:00: Balanced after 2 trials
   
     8:00:00: Balanced after 3 trials
   
     8:05:00: Balanced after 1 trials
   
     8:10:00: Balanced after 1 trials
   
     8:15:00: Balanced after 1 trials
   
     8:20:00: Balanced after 1 trials
   
     8:25:00: Balanced after 1 trials
   
     8:30:00: Balanced after 1 trials
   
     8:35:00: Balanced after 1 trials
   
     8:40:00: Balanced after 1 trials
   
     8:40:33: Balanced after 4 trials
     8:40:33: Tank 3 is closed at 35.50 ft
     8:40:33: Pipe 20 changed from open to temporarily closed
   
     8:45:00: Balanced after 1 trials
   
     8:50:00: Balanced after 1 trials
   
     8:55:00: Balanced after 1 trials
   
     9:00:00: Balanced after 5 trials
     9:00:00: Tank 1 is emptying at 23.10 ft
     9:00:00: Tank 3 is emptying at 35.50 ft
     9:00:00: Pipe 20 changed from temporarily closed to open
   
     9:05:00: Balanced after 1 trials
   
     9:10:00: Balanced after 1 trials
   
     9:15:00: Balanced after 1 trials
   
     9:20:00: Balanced after 1 trials
   
     9:25:00: Balanced after 1 trials
   
     9:30:00: Balanced after 1 trials
   
     9:35:00: Balanced after 1 trials
   
     9:40:00: Balanced after 1 trials
   
     9:45:00: Balanced after 1 trials
   
     9:50:00: Balanced after 1 trials
   
     9:55:00: Balanced after 1 trials
   
    10:00:00: Balanced after 3 trials
   
    10:05:00: Balanced after 1 trials
   
    10:10:00: Balanced after 1 trials
   
    10:15:00: Balanced after 1 trials
   
    10:20:00: Balanced after 1 trials
   
    10:25:00: Balanced after 1 trials
   
    10:30:00: Balanced after 1 trials
   
    10:35:00: Balanced after 1 trials
   
    10:40:00: Balanced after 1 trials
   
    10:45:00: Balanced after 1 trials
   
    10:50:00: Balanced after 1 trials
   
    10:55:00: Balanced after 1 trials
   
    11:00:00: Balanced after 3 trials
    11:00:00: Tank 2 is emptying at 28.46 ft
   
    11:05:00: Balanced after 1 trials
   
    11:10:00: Balanced after 1 trials
   
    11:15:00: Balanced after 1 trials
   
    11:20:00: Balanced after 1 trials
   
    11:25:00: Balanced after 1 trials
   
    11:30:00: Balanced after 1 trials
   
    11:35:00: Balanced after 1 trials
   
    11:40:00: Balanced after 1 trials
   
    11:45:00: Balanced after 1 trials
   
    11:50:00: Balanced after 1 trials
   
    11:55:00: Balanced after 1 trials
   
    12:00:00: Balanced after 3 trials
   
    12:05:00: Balanced after 1 trials
   
    12:10:00: Balanced after 1 trials
   
    12:15:00: Balanced after 1 trials
   
    12:20:00: Balanced after 1 trials
   
    12:25:00: Balanced after 1 trials
   
    12:30:00: Balanced after 1 trials
   
    12:35:00: Balanced after 1 trials
   
    12:40:00: Balanced after 1 trials
   
    12:45:00: Balanced after 1 trials
   
    12:50:00: Balanced after 1 trials
   
    12:55:00: Balanced after 1 trials
   
    13:00:00: Balanced after 3 trials
    13:00:00: Tank 1 is filling at 21.72 ft
    13:00:00: Tank 2 is filling at 27.60 ft
   
    13:05:00: Balanced after 2 trials
   
    13:10:00: Balanced after 2 trials
   
    13:15:00: Balanced after 2 trials
   
    13:20:00: Balanced after 2 trials
   
    13:25:00: Balanced after 2 trials
   
    13:30:00: Balanced after 2 trials
   
    13:35:00: Balanced after 2 trials
   
    13:40:00: Balanced after 2 trials
   
    13:45:00: Balanced after 2 trials
   
    13:50:00: Balanced after 2 trials
   
    13:55:00: Balanced after 2 trials
   
    14:00:00: Balanced after 3 trials
    14:00:00: Tank 1 is emptying at 22.17 ft
   
    14:05:00: Balanced after 1 trials
   
    14:10:00: Balanced after 1 trials
   
    14:15:00: Balanced after 1 trials
   
    14:20:00: Balanced after 1 trials
   
    14:25:00: Balanced after 1 trials
   
    14:30:00: Balanced after 1 trials
   
    14:35:00: Balanced after 1 trials
   
    14:40:00: Balanced after 1 trials
   
    14:45:00: Balanced after 1 trials
   
    14:50:00: Balanced after 1 trials
   
    14:55:00: Balanced after 1 trials
   
    15:00:00: Pump 10 changed by timer control
    15:00:00: Balanced after 4 trials
    15:00:00: Reservoir Lake is closed
    15:00:00: Tank 2 is emptying at 28.13 ft
    15:00:00: Pump 10 changed from open to closed
   
    15:05:00: Balanced after 1 trials
   
    15:10:00: Balanced after 1 trials
   
    15:15:00: Balanced after 1 trials
   
    15:20:00: Balanced after 1 trials
   
    15:25:00: Balanced after 1 trials
   
    15:30:00: Balanced after 1 trials
   
    15:35:00: Balanced after 1 trials
   
    15:40:00: Balanced after 1 trials
   
    15:45:00: Balanced after 1 trials
   
    15:50:00: Balanced after 1 trials
   
    15:55:00: Balanced after 1 trials
   
    16:00:00: Balanced after 3 trials
   
    16:05:00: Balanced after 1 trials
   
    16:10:00: Balanced after 1 trials
   
    16:15:00: Balanced after 1 trials
   
    16:20:00: Balanced after 1 trials
   
    16:25:00: Balanced after 1 trials
   
    16:30:00: Balanced after 1 trials
   
    16:35:00: Balanced after 1 trials
   
    16:40:00: Balanced after 1 trials
   
    16:45:00: Balanced after 1 trials
   
    16:50:00: Balanced after 1 trials
   
    16:55:00: Balanced after 1 trials
   
    17:00:00: Balanced after 2 trials
   
    17:05:00: Balanced after 1 trials
   
    17:10:00: Balanced after 1 trials
   
    17:15:00: Balanced after 1 trials
   
    17:20:00: Balanced after 1 trials
   
    17:25:00: Balanced after 1 trials
   
    17:30:00: Balanced after 1 trials
   
    17:35:00: Balanced after 1 trials
   
    17:40:00: Balanced after 1 trials
   
    17:45:00: Balanced after 1 trials
   
    17:50:00: Balanced after 1 trials
   
    17:55:00: Balanced after 1 trials
   
    18:00:00: Balanced after 4 trials
    18:00:00: Tank 1 is filling at 18.89 ft
    18:00:00: Tank 2 is filling at 26.53 ft
   
    18:05:00: Balanced after 2 trials
   
    18:10:00: Balanced after 2 trials
   
    18:15:00: Balanced after 2 trials
   
    18:20:00: Balanced after 2 trials
   
    18:25:00: Balanced after 2 trials
   
    18:30:00: Balanced after 2 trials
   
    18:35:00: Balanced after 2 trials
   
    18:40:00: Balanced after 2 trials
   
    18:45:00: Balanced after 2 trials
   
    18:50:00: Balanced after 2 trials
   
    18:55:00: Balanced after 2 trials
   
    19:00:00: Balanced after 4 trials
    19:00:00: Tank 1 is emptying at 19.45 ft
    19:00:00: Tank 2 is emptying at 27.76 ft
   
    19:05:00: Balanced after 1 trials
   
    19:10:00: Balanced after 1 trials
   
    19:15:00: Balanced after 1 trials
   
    19:20:00: Balanced after 1 trials
   
    19:25:00: Balanced after 1 trials
   
    19:30:00: Balanced after 1 trials
   
    19:35:00: Balanced after 1 trials
   
    19:40:00: Balanced after 1 trials
   
    19:45:00: Balanced after 1 trials
   
    19:50:00: Balanced after 1 trials
   
    19:55:00: Balanced after 1 trials
   
    20:00:00: Balanced after 3 trials
   
    20:05:00: Balanced after 1 trials
   
    20:10:00: Balanced after 1 trials
   
    20:15:00: Balanced after 1 trials
   
    20:20:00: Balanced after 1 trials
   
    20:25:00: Balanced after 1 trials
   
    20:30:00: Balanced after 1 trials
   
    20:35:00: Balanced after 1 trials
   
    20:40:00: Balanced after 1 trials
   
    20:45:00: Balanced after 1 trials
   
    20:50:00: Balanced after 1 trials
   
    20:55:00: Balanced after 1 trials
   
    21:00:00: Balanced after 3 trials
   
    21:05:00: Balanced after 2 trials
   
    21:10:00: Balanced after 2 trials
   
    21:15:00: Balanced after 2 trials
   
    21:20:00: Balanced after 2 trials
   
    21:22:15: Pump 335 changed by Tank 1 control
    21:22:15: Pipe 330 changed by Tank 1 control
    21:22:15: Balanced after 5 trials
    21:22:15: Tank 3 is filling at 29.81 ft
    21:22:15: Pipe 330 changed from open to closed
    21:22:15: Pump 335 changed from closed to open
   
    21:25:00: Balanced after 2 trials
   
    21:30:00: Balanced after 2 trials
   
    21:35:00: Balanced after 2 trials
   
    21:40:00: Balanced after 2 trials
   
    21:45:00: Balanced after 2 trials
   
    21:50:00: Balanced after 2 trials
   
    21:55:00: Balanced after 2 trials
   
    22:00:00: Balanced after 3 trials
    22:00:00: Tank 1 is filling at 16.92 ft
   
    22:05:00: Balanced after 2 trials
   
    22:10:00: Balanced after 2 trials
   
    22:15:00: Balanced after 2 trials
   
    22:20:00: Balanced after 2 trials
   
    22:25:00: Balanced after 2 trials
   
    22:30:00: Balanced after 2 trials
   
    22:35:00: Balanced after 2 trials
   
    22:40:00: Balanced after 2 trials
   
    22:45:00: Balanced after 2 trials
   
    22:50:00: Balanced after 2 trials
   
    22:55:00: Balanced after 2 trials
   
    23:00:00: Balanced after 4 trials
    23:00:00: Tank 1 is emptying at 17.00 ft
   
    23:05:00: Balanced after 2 trials
   
    23:10:00: Balanced after 2 trials
   
    23:15:00: Balanced after 2 trials
   
    23:20:00: Balanced after 2 trials
   
    23:25:00: Balanced after 2 trials
   
    23:30:00: Balanced after 2 trials
   
    23:35:00: Balanced after 2 trials
   
    23:40:00: Balanced after 2 trials
   
    23:45:00: Balanced after 2 trials
   
    23:50:00: Balanced after 2 trials
   
    23:55:00: Balanced after 2 trials
   
    24:00:00: Balanced after 4 trials
    24:00:00: Tank 1 is filling at 15.76 ft
   
   
  Node Results at 0:00:00 hrs:
  --------------------------------------------------------
                     Demand      Head  Pressure  Chemical
  Node                  gpm        ft       psi      mg/L
  --------------------------------------------------------
  10                   0.00    146.48     -0.23      0.00
  15                 554.62    132.07     43.36      0.00
  20                   0.00    158.00     12.57      0.00
  35                1574.59    146.40     58.02      0.00
  40                   0.00    145.00      5.68      0.00
  50                   0.00    140.00     10.18      0.00
  60                   0.00    209.03     90.57      0.00
  601                  0.00    302.59    131.11      0.00
  61                   0.00    302.59    131.11      0.00
  101                239.34    146.48     45.27      0.00
  103                167.83    146.45     44.82      0.00
  105                170.57    147.73     51.66      0.00
  107                 68.85    147.72     54.47      0.00
  109                291.56    146.45     54.66      0.00
  111                178.84    146.95     59.34      0.00
  113                 25.21    146.96     62.81      0.00
  115                 65.65    147.77     57.96      0.00
  117                148.31    150.81     59.45      0.00
  119                221.92    158.05     67.62      0.00
  120                  0.00    155.71     67.47      0.00
  121                 52.45    161.41     70.80      0.00
  123                  0.00    165.86     67.10      0.00
  125                 57.46    160.77     64.89      0.00
  127                 22.25    158.87     44.57      0.00
  129                  0.00    158.86     46.74      0.00
  131                 53.86    158.84     66.23      0.00
  139                  7.42    154.26     53.41      0.00
  141                 12.41    150.99     63.69      0.00
  143                  7.81    142.19     63.56      0.00
  145                 34.81    151.99     65.43      0.00
  147                 10.77    152.76     58.17      0.00
  149                 34.11    153.08     59.40      0.00
  151                182.04    156.29     53.20      0.00
  153                 55.65    156.38     39.07      0.00
  157                 65.26    155.66     61.77      0.00
  159                 52.06    152.36     63.42      0.00
  161                 19.91    150.11     63.31      0.00
  163                 11.87    149.66     62.68      0.00
  164                  0.00    149.66     62.68      0.00
  166                  3.28    149.66     65.72      0.00
  167                 18.35    147.82     66.22      0.00
  169                  0.00    147.82     66.22      0.00
  171                 49.57    146.75     65.32      0.00
  173                  0.00    146.73     65.31      0.00
  177                 73.29    146.38     59.96      0.00
  179                  0.00    146.35     59.95      0.00
  181                  0.00    146.41     59.97      0.00
  183                  0.00    146.36     58.65      0.00
  184                  0.00    145.24     56.00      0.00
  185                 32.32    145.81     56.25      0.00
  187                  0.00    146.54     58.08      0.00
  189                135.98    146.82     61.88      0.00
  191                103.19    146.85     52.80      0.00
  193                 89.85    146.94     55.87      0.00
  195                  0.00    147.01     56.98      0.00
  197                 21.47    146.87     53.67      0.00
  199                150.34    141.70     62.27      0.00
  201                 56.21    140.99     61.05      0.00
  203               4302.31    140.84     60.16      0.00
  204                  0.00    146.28     54.28      0.00
  205                 82.35    141.67     52.29      0.00
  206                  0.00    140.70     60.53      0.00
  207                 87.43    140.96     57.18      0.00
  208                  0.00    140.41     53.91      0.00
  209                  1.10    139.90     61.48      0.00
  211                 10.92    139.73     57.51      0.00
  213                 17.56    139.66     57.48      0.00
  215                116.16    139.49     57.41      0.00
  217                 30.52    139.47     57.83      0.00
  219                 52.06    139.46     58.70      0.00
  225                 28.73    139.47     56.96      0.00
  229                 80.87    139.52     55.90      0.00
  231                 20.76    139.51     58.28      0.00
  237                 19.67    139.58     54.41      0.00
  239                 56.21    139.57     54.84      0.00
  241                  0.00    139.57     54.84      0.00
  243                  5.47    139.57     54.41      0.00
  247                 88.68    139.57     52.68      0.00
  249                  0.00    139.57     52.68      0.00
  251                 30.44    139.57     47.48      0.00
  253                 68.70    139.58     44.88      0.00
  255                 50.89    139.63     48.80      0.00
  257                  0.00    152.71     58.80      0.00
  259                  0.00    152.29     55.15      0.00
  261                  0.00    150.77     65.33      0.00
  263                  0.00    150.61     65.26      0.00
  265                  0.00    148.41     64.30      0.00
  267                  0.00    146.94     54.57      0.00
  269                  0.00    147.19     63.78      0.00
  271                  0.00    146.50     60.88      0.00
  273                  0.00    141.67     57.92      0.00
  275                  0.00    140.99     56.76      0.00
  River           -13144.78    220.00      0.00      0.00  Reservoir
  Lake                 0.00    167.00      0.00      0.00  Reservoir
  1                  648.81    145.00      5.68      0.00  Tank
  2                 -229.29    140.00     10.18      0.00  Tank
  3                 2453.12    158.00     12.57      0.00  Tank
   
   
  Link Results at 0:00:00 hrs:
  ----------------------------------------------
                       Flow  Velocity  Headloss
  Link                  gpm       fps   /1000ft
  ----------------------------------------------
  20               -2453.12      0.10      0.00
  40                -648.81      0.03      0.00
  50                 229.29      0.01      0.00
  60               13144.78      9.32      8.91
  101                  0.00      0.00      0.00
  103                173.32      0.28      0.02
  105               -412.66      1.17      0.49
  107                 40.27      0.11      0.01
  109                  5.49      0.01      0.00
  111               -286.07      0.81      0.25
  112                502.81      1.43      0.71
  113                -47.92      0.14      0.01
  114                127.68      0.81      0.40
  115                -28.58      0.18      0.03
  116                 54.54      0.15      0.01
  117                623.49      1.77      1.06
  119               -724.71      2.06      1.40
  120               1134.82      3.22      3.20
  121               1018.22      2.89      2.62
  122                361.70      2.31      2.78
  123               9664.66      4.39      1.68
  125              13144.78      5.97      2.97
  129               3065.97      2.17      0.69
  131               2804.41      1.99      0.58
  133              -2453.12      2.51      1.11
  135                329.04      0.23      0.01
  137                 53.86      0.09      0.00
  145                275.17      1.76      1.67
  147                267.75      1.71      1.59
  149               -562.43      3.59      6.29
  151               -554.62      3.54      6.13
  153                307.09      0.87      0.28
  155                341.90      0.97      0.35
  159               -352.68      1.00      0.37
  161               -386.79      2.47      3.15
  163               -148.44      0.42      0.07
  169                204.10      1.30      0.96
  171                420.39      1.19      0.51
  173               7887.53      3.58      1.15
  175               7822.27      3.55      1.13
  177               7770.21      3.53      1.12
  179               7505.27      3.41      1.05
  180                  3.28      0.01      0.00
  181                  3.28      0.01      0.00
  183               7290.25      3.31      1.00
  185                -18.35      0.12      0.01
  186                346.88      2.21      2.57
  187               6674.90      3.03      0.85
  189               4595.64      2.09      0.42
  191              -2029.69      1.44      0.32
  193              -1574.59      1.12      0.20
  195                603.47      1.71      0.99
  197                530.18      1.50      0.78
  199               -118.63      0.34      0.05
  201               -648.81      1.84      1.14
  202                532.45      3.40      5.68
  203                217.88      1.39      1.09
  204                532.45      1.51      0.79
  205                346.88      0.98      0.36
  207                336.51      0.95      0.34
  209                152.30      0.97      0.56
  211                597.01      1.69      0.98
  213                194.58      0.55      0.12
  215                176.16      0.50      0.10
  217               -233.44      0.66      0.17
  219               -245.03      0.70      0.19
  221                245.03      1.56      1.35
  223                 64.34      0.18      0.02
  225                 85.81      0.24      0.03
  229               4595.64      3.26      1.26
  231               4330.62      3.07      1.12
  233               4302.31      3.05      1.29
  235                114.68      0.33      0.05
  237                455.55      1.29      0.59
  238                449.45      1.27      0.58
  239                 81.33      0.23      0.02
  240                449.45      1.27      0.58
  241                449.45      1.27      0.58
  243                448.35      0.72      0.14
  245                293.19      0.47      0.06
  247                227.47      0.36      0.04
  249                111.31      0.18      0.01
  251                 52.06      0.11      0.01
  257                 28.73      0.08      0.00
  261                 48.16      0.31      0.07
  263                 20.76      0.06      0.00
  269                144.23      0.41      0.07
  271                 53.47      0.34      0.08
  273                 71.09      0.20      0.02
  275                  9.32      0.03      0.00
  277                  5.47      0.02      0.00
  281                  3.85      0.02      0.00
  283                  5.57      0.02      0.00
  285                -17.35      0.05      0.00
  287                -67.48      0.28      0.04
  289                229.29      0.94      0.40
  291                 68.70      0.28      0.04
  293                 42.23      0.27      0.05
  295                -11.78      0.03      0.00
  297                478.30      3.05      4.66
  299                229.80      1.47      1.20
  301                229.80      1.47      1.20
  303                248.50      1.59      1.39
  305                145.20      0.41      0.07
  307                393.70      1.12      0.45
  309                199.87      1.28      0.93
  311                -23.71      0.07      0.00
  313                448.63      1.27      0.57
  315              -2178.06      1.54      0.37
  317                109.23      0.70      0.30
  319                  5.46      0.02      0.00
  321               7490.12      3.40      1.05
  323                -27.90      0.08      0.00
  325                148.38      0.95      0.53
  329              13144.78      5.97      3.01
  330                  0.00      0.00      0.00
  333                 -0.00      0.00      0.00
  10                   0.00      0.00      0.00  Pump
  335              13144.78      0.00    -93.56  Pump
   
   
  Node Results at 0:05:00 hrs:
  --------------------------------------------------------
                     Demand      Head  Pressure  Chemical
  Node                  gpm        ft       psi      mg/L
  --------------------------------------------------------
  10                   0.00    146.53     -0.20      0.00
  15                 554.62    132.14     43.39      0.00
  20                   0.00    158.08     12.60      0.00
  35                1574.59    146.45     58.04      0.00
  40                   0.00    145.08      5.71      0.00
  50                   0.00    139.92     10.15      0.00
  60                   0.00    209.03     90.57      0.00
  601                  0.00    302.61    131.12      0.00
  61                   0.00    302.61    131.12      0.00
  101                239.34    146.53     45.29      0.00
  103                167.83    146.50     44.85      0.00
  105                170.57    147.78     51.69      0.00
  107                 68.85    147.77     54.50      0.00
  109                291.56    146.50     54.68      0.00
  111                178.84    147.00     59.36      0.00
  113                 25.21    147.01     62.83      0.00
  115                 65.65    147.82     57.99      0.00
  117                148.31    150.87     59.48      0.00
  119                221.92    158.11     67.64      0.00
  120                  0.00    155.77     67.50      0.00
  121                 52.45    161.47     70.83      0.00
  123                  0.00    165.92     67.13      0.00
  125                 57.46    160.83     64.92      0.00
  127                 22.25    158.94     44.61      0.00
  129                  0.00    158.93     46.77      0.00
  131                 53.86    158.92     66.26      0.00
  139                  7.42    154.33     53.44      0.00
  141                 12.41    151.06     63.72      0.00
  143                  7.81    142.25     63.59      0.00
  145                 34.81    152.06     65.45      0.00
  147                 10.77    152.82     58.20      0.00
  149                 34.11    153.15     59.43      0.00
  151                182.04    156.35     53.23      0.00
  153                 55.65    156.44     39.10      0.00
  157                 65.26    155.72     61.80      0.00
  159                 52.06    152.41     63.44      0.00
  161                 19.91    150.17     63.34      0.00
  163                 11.87    149.72     62.71      0.00
  164                  0.00    149.72     62.71      0.00
  166                  3.28    149.72     65.74      0.00
  167                 18.35    147.87     66.24      0.00
  169                  0.00    147.87     66.24      0.00
  171                 49.57    146.80     65.34      0.00
  173                  0.00    146.78     65.33      0.00
  177                 73.29    146.43     59.98      0.00
  179                  0.00    146.41     59.97      0.00
  181                  0.00    146.46     59.99      0.00
  183                  0.00    146.42     58.68      0.00
  184                  0.00    145.29     56.02      0.00
  185                 32.32    145.86     56.27      0.00
  187                  0.00    146.59     58.10      0.00
  189                135.98    146.87     61.91      0.00
  191                103.19    146.91     52.82      0.00
  193                 89.85    147.00     55.89      0.00
  195                  0.00    147.06     57.01      0.00
  197                 21.47    146.92     53.70      0.00
  199                150.34    141.74     62.28      0.00
  201                 56.21    141.03     61.06      0.00
  203               4302.31    140.87     60.17      0.00
  204                  0.00    146.33     54.31      0.00
  205                 82.35    141.70     52.30      0.00
  206                  0.00    140.72     60.54      0.00
  207                 87.43    140.99     57.19      0.00
  208                  0.00    140.41     53.91      0.00
  209                  1.10    139.88     61.48      0.00
  211                 10.92    139.70     57.50      0.00
  213                 17.56    139.64     57.47      0.00
  215                116.16    139.47     57.40      0.00
  217                 30.52    139.45     57.82      0.00
  219                 52.06    139.44     58.69      0.00
  225                 28.73    139.44     56.95      0.00
  229                 80.87    139.48     55.89      0.00
  231                 20.76    139.48     58.27      0.00
  237                 19.67    139.54     54.40      0.00
  239                 56.21    139.53     54.83      0.00
  241                  0.00    139.53     54.83      0.00
  243                  5.47    139.53     54.39      0.00
  247                 88.68    139.53     52.66      0.00
  249                  0.00    139.53     52.66      0.00
  251                 30.44    139.53     47.46      0.00
  253                 68.70    139.53     44.86      0.00
  255                 50.89    139.58     48.78      0.00
  257                  0.00    152.76     58.83      0.00
  259                  0.00    152.35     55.18      0.00
  261                  0.00    150.82     65.35      0.00
  263                  0.00    150.67     65.28      0.00
  265                  0.00    148.46     64.33      0.00
  267                  0.00    147.00     54.60      0.00
  269                  0.00    147.24     63.80      0.00
  271                  0.00    146.56     60.90      0.00
  273                  0.00    141.70     57.93      0.00
  275                  0.00    141.03     56.77      0.00
  River           -13142.66    220.00      0.00      0.00  Reservoir
  Lake                 0.00    167.00      0.00      0.00  Reservoir
  1                  643.11    145.08      5.71      0.00  Tank
  2                 -219.67    139.92     10.15      0.00  Tank
  3                 2447.08    158.08     12.60      0.00  Tank
   
   
  Link Results at 0:05:00 hrs:
  ----------------------------------------------
                       Flow  Velocity  Headloss
  Link                  gpm       fps   /1000ft
  ----------------------------------------------
  20               -2447.08      0.10      0.00
  40                -643.11      0.03      0.00
  50                 219.67      0.01      0.00
  60               13142.66      9.32      8.91
  101                  0.00      0.00      0.00
  103                173.44      0.28      0.02
  105               -412.78      1.17      0.49
  107                 40.35      0.11      0.01
  109                  5.61      0.01      0.00
  111               -285.95      0.81      0.25
  112                503.08      1.43      0.71
  113                -47.71      0.14      0.01
  114                127.76      0.82      0.40
  115                -28.50      0.18      0.03
  116                 54.84      0.16      0.01
  117                623.70      1.77      1.06
  119               -724.98      2.06      1.40
  120               1135.17      3.22      3.21
  121               1018.54      2.89      2.62
  122                361.82      2.31      2.78
  123               9668.26      4.39      1.68
  125              13142.66      5.97      2.96
  129               3060.13      2.17      0.69
  131               2798.50      1.98      0.58
  133              -2447.08      2.50      1.10
  135                329.17      0.23      0.01
  137                 53.86      0.09      0.00
  145                275.30      1.76      1.68
  147                267.88      1.71      1.59
  149               -562.43      3.59      6.29
  151               -554.62      3.54      6.13
  153                306.96      0.87      0.28
  155                341.78      0.97      0.35
  159               -352.55      1.00      0.37
  161               -386.66      2.47      3.14
  163               -148.52      0.42      0.07
  169                204.17      1.30      0.96
  171                420.19      1.19      0.51
  173               7890.97      3.58      1.15
  175               7825.72      3.55      1.14
  177               7773.66      3.53      1.12
  179               7508.67      3.41      1.05
  180                  3.28      0.01      0.00
  181                  3.28      0.01      0.00
  183               7293.68      3.31      1.00
  185                -18.35      0.12      0.01
  186                347.39      2.22      2.58
  187               6678.48      3.03      0.85
  189               4604.08      2.09      0.43
  191              -2024.83      1.44      0.32
  193              -1574.59      1.12      0.20
  195                598.65      1.70      0.98
  197                525.36      1.49      0.77
  199               -117.75      0.33      0.05
  201               -643.11      1.82      1.12
  202                533.63      3.41      5.71
  203                218.56      1.40      1.09
  204                533.63      1.51      0.79
  205                347.39      0.99      0.36
  207                336.31      0.95      0.34
  209                152.51      0.97      0.56
  211                596.85      1.69      0.97
  213                194.89      0.55      0.12
  215                176.35      0.50      0.10
  217               -233.55      0.66      0.17
  219               -245.08      0.70      0.19
  221                245.08      1.56      1.35
  223                 64.53      0.18      0.02
  225                 86.00      0.24      0.03
  229               4604.08      3.27      1.26
  231               4337.53      3.08      1.13
  233               4302.31      3.05      1.29
  235                116.21      0.33      0.05
  237                458.12      1.30      0.60
  238                459.07      1.30      0.60
  239                 88.38      0.25      0.03
  240                459.07      1.30      0.60
  241                459.07      1.30      0.60
  243                457.97      0.73      0.15
  245                295.00      0.47      0.07
  247                227.47      0.36      0.04
  249                111.31      0.18      0.01
  251                 52.06      0.11      0.01
  257                 28.73      0.08      0.00
  261                 49.97      0.32      0.07
  263                 20.76      0.06      0.00
  269                152.04      0.43      0.08
  271                 51.66      0.33      0.08
  273                 80.71      0.23      0.02
  275                 12.59      0.04      0.00
  277                  5.47      0.02      0.00
  281                  7.13      0.03      0.00
  283                 11.91      0.03      0.00
  285                -20.05      0.06      0.00
  287                -61.50      0.25      0.04
  289                219.67      0.90      0.37
  291                 68.70      0.28      0.04
  293                 38.58      0.25      0.04
  295                 -8.14      0.02      0.00
  297                478.45      3.05      4.66
  299                229.87      1.47      1.20
  301                229.87      1.47      1.20
  303                248.58      1.59      1.39
  305                145.25      0.41      0.07
  307                393.83      1.12      0.45
  309                199.84      1.28      0.93
  311                -23.49      0.07      0.00
  313                448.44      1.27      0.57
  315              -2173.24      1.54      0.36
  317                109.37      0.70      0.30
  319                  6.84      0.02      0.00
  321               7493.52      3.40      1.05
  323                -20.99      0.06      0.00
  325                148.41      0.95      0.53
  329              13142.66      5.97      3.00
  330                  0.00      0.00      0.00
  333                 -0.00      0.00      0.00
  10                   0.00      0.00      0.00  Pump
  335              13142.66      0.00    -93.58  Pump
   
   
  Node Results at 0:10:00 hrs:
  --------------------------------------------------------
                     Demand      Head  Pressure  Chemical
  Node                  gpm        ft       psi      mg/L
  --------------------------------------------------------
  10                   0.00    146.59     -0.18      0.00
  15                 554.62    132.20     43.42      0.00
  20                   0.00    158.16     12.63      0.00
  35                1574.59    146.51     58.07      0.00
  40                   0.00    145.15      5.74      0.00
  50                   0.00    139.85     10.12      0.00
  60                   0.00    209.04     90.58      0.00
  601                  0.00    302.63    131.13      0.00
  61                   0.00    302.63    131.13      0.00
  101                239.34    146.59     45.32      0.00
  103                167.83    146.56     44.87      0.00
  105                170.57    147.84     51.71      0.00
  107                 68.85    147.83     54.52      0.00
  109                291.56    146.56     54.71      0.00
  111                178.84    147.05     59.39      0.00
  113                 25.21    147.07     62.86      0.00
  115                 65.65    147.88     58.01      0.00
  117                148.31    150.93     59.50      0.00
  119                221.92    158.17     67.67      0.00
  120                  0.00    155.83     67.52      0.00
  121                 52.45    161.53     70.86      0.00
  123                  0.00    165.98     67.15      0.00
  125                 57.46    160.90     64.95      0.00
  127                 22.25    159.02     44.64      0.00
  129                  0.00    159.01     46.80      0.00
  131                 53.86    158.99     66.29      0.00
  139                  7.42    154.40     53.47      0.00
  141                 12.41    151.13     63.75      0.00
  143                  7.81    142.32     63.62      0.00
  145                 34.81    152.13     65.48      0.00
  147                 10.77    152.89     58.23      0.00
  149                 34.11    153.21     59.45      0.00
  151                182.04    156.42     53.26      0.00
  153                 55.65    156.50     39.13      0.00
  157                 65.26    155.78     61.82      0.00
  159                 52.06    152.47     63.47      0.00
  161                 19.91    150.23     63.36      0.00
  163                 11.87    149.77     62.73      0.00
  164                  0.00    149.77     62.73      0.00
  166                  3.28    149.77     65.76      0.00
  167                 18.35    147.93     66.26      0.00
  169                  0.00    147.93     66.26      0.00
  171                 49.57    146.85     65.36      0.00
  173                  0.00    146.83     65.35      0.00
  177                 73.29    146.49     60.01      0.00
  179                  0.00    146.46     60.00      0.00
  181                  0.00    146.51     60.02      0.00
  183                  0.00    146.47     58.70      0.00
  184                  0.00    145.34     56.04      0.00
  185                 32.32    145.91     56.29      0.00
  187                  0.00    146.65     58.13      0.00
  189                135.98    146.93     61.93      0.00
  191                103.19    146.96     52.85      0.00
  193                 89.85    147.05     55.92      0.00
  195                  0.00    147.12     57.03      0.00
  197                 21.47    146.98     53.72      0.00
  199                150.34    141.77     62.30      0.00
  201                 56.21    141.06     61.08      0.00
  203               4302.31    140.90     60.19      0.00
  204                  0.00    146.39     54.33      0.00
  205                 82.35    141.74     52.32      0.00
  206                  0.00    140.73     60.55      0.00
  207                 87.43    141.01     57.20      0.00
  208                  0.00    140.42     53.91      0.00
  209                  1.10    139.87     61.47      0.00
  211                 10.92    139.68     57.49      0.00
  213                 17.56    139.62     57.46      0.00
  215                116.16    139.44     57.39      0.00
  217                 30.52    139.43     57.81      0.00
  219                 52.06    139.42     58.68      0.00
  225                 28.73    139.42     56.94      0.00
  229                 80.87    139.45     55.87      0.00
  231                 20.76    139.44     58.26      0.00
  237                 19.67    139.50     54.38      0.00
  239                 56.21    139.49     54.81      0.00
  241                  0.00    139.49     54.81      0.00
  243                  5.47    139.49     54.37      0.00
  247                 88.68    139.49     52.64      0.00
  249                  0.00    139.49     52.64      0.00
  251                 30.44    139.49     47.44      0.00
  253                 68.70    139.48     44.84      0.00
  255                 50.89    139.53     48.76      0.00
  257                  0.00    152.82     58.85      0.00
  259                  0.00    152.40     55.20      0.00
  261                  0.00    150.88     65.38      0.00
  263                  0.00    150.72     65.31      0.00
  265                  0.00    148.52     64.35      0.00
  267                  0.00    147.05     54.62      0.00
  269                  0.00    147.30     63.82      0.00
  271                  0.00    146.61     60.93      0.00
  273                  0.00    141.74     57.95      0.00
  275                  0.00    141.06     56.79      0.00
  River           -13140.54    220.00      0.00      0.00  Reservoir
  Lake                 0.00    167.00      0.00      0.00  Reservoir
  1                  637.59    145.15      5.74      0.00  Tank
  2                 -210.30    139.85     10.12      0.00  Tank
  3                 2441.12    158.16     12.63      0.00  Tank
   
   
  Link Results at 0:10:00 hrs:
  ----------------------------------------------
                       Flow  Velocity  Headloss
  Link                  gpm       fps   /1000ft
  ----------------------------------------------
  20               -2441.12      0.10      0.00
  40                -637.59      0.03      0.00
  50                 210.30      0.01      0.00
  60               13140.54      9.32      8.91
  101                  0.00      0.00      0.00
  103                173.56      0.28      0.02
  105               -412.90      1.17      0.49
  107                 40.43      0.11      0.01
  109                  5.73      0.01      0.00
  111               -285.83      0.81      0.25
  112                503.35      1.43      0.71
  113                -47.50      0.13      0.01
  114                127.84      0.82      0.40
  115                -28.42      0.18      0.02
  116                 55.12      0.16      0.01
  117                623.89      1.77      1.06
  119               -725.25      2.06      1.40
  120               1135.52      3.22      3.21
  121               1018.86      2.89      2.62
  122                361.94      2.31      2.78
  123               9671.78      4.39      1.68
  125              13140.54      5.96      2.96
  129               3054.36      2.17      0.68
  131               2792.66      1.98      0.58
  133              -2441.12      2.49      1.10
  135                329.29      0.23      0.01
  137                 53.86      0.09      0.00
  145                275.43      1.76      1.68
  147                268.01      1.71      1.59
  149               -562.43      3.59      6.29
  151               -554.62      3.54      6.13
  153                306.83      0.87      0.28
  155                341.65      0.97      0.35
  159               -352.42      1.00      0.37
  161               -386.53      2.47      3.14
  163               -148.59      0.42      0.07
  169                204.24      1.30      0.96
  171                419.99      1.19      0.51
  173               7894.35      3.58      1.15
  175               7829.10      3.55      1.14
  177               7777.04      3.53      1.12
  179               7512.01      3.41      1.05
  180                  3.28      0.01      0.00
  181                  3.28      0.01      0.00
  183               7297.04      3.31      1.00
  185                -18.35      0.12      0.01
  186                347.89      2.22      2.58
  187               6681.99      3.03      0.85
  189               4612.30      2.09      0.43
  191              -2020.12      1.43      0.32
  193              -1574.59      1.12      0.20
  195                593.98      1.68      0.97
  197                520.68      1.48      0.76
  199               -116.91      0.33      0.05
  201               -637.59      1.81      1.10
  202                534.78      3.41      5.73
  203                219.21      1.40      1.10
  204                534.78      1.52      0.80
  205                347.89      0.99      0.36
  207                336.12      0.95      0.34
  209                152.70      0.97      0.56
  211                596.70      1.69      0.97
  213                195.19      0.55      0.12
  215                176.54      0.50      0.10
  217               -233.67      0.66      0.17
  219               -245.12      0.70      0.19
  221                245.12      1.56      1.35
  223                 64.71      0.18      0.02
  225                 86.18      0.24      0.03
  229               4612.30      3.27      1.26
  231               4344.21      3.08      1.13
  233               4302.31      3.05      1.29
  235                117.75      0.33      0.05
  237                460.67      1.31      0.60
  238                468.44      1.33      0.62
  239                 95.20      0.27      0.03
  240                468.44      1.33      0.62
  241                468.44      1.33      0.62
  243                467.34      0.75      0.15
  245                296.81      0.47      0.07
  247                227.47      0.36      0.04
  249                111.31      0.18      0.01
  251                 52.06      0.11      0.01
  257                 28.73      0.08      0.00
  261                 51.77      0.33      0.08
  263                 20.76      0.06      0.00
  269                159.61      0.45      0.08
  271                 49.86      0.32      0.07
  273                 90.09      0.26      0.03
  275                 16.09      0.05      0.00
  277                  5.47      0.02      0.00
  281                 10.62      0.04      0.00
  283                 17.79      0.05      0.00
  285                -22.38      0.06      0.00
  287                -55.68      0.23      0.03
  289                210.30      0.86      0.34
  291                 68.70      0.28      0.04
  293                 35.04      0.22      0.04
  295                 -4.60      0.01      0.00
  297                478.60      3.05      4.67
  299                229.94      1.47      1.20
  301                229.94      1.47      1.20
  303                248.66      1.59      1.39
  305                145.29      0.41      0.07
  307                393.95      1.12      0.45
  309                199.82      1.28      0.93
  311                -23.28      0.07      0.00
  313                448.26      1.27      0.57
  315              -2168.57      1.54      0.36
  317                109.50      0.70      0.30
  319                  8.24      0.02      0.00
  321               7496.86      3.40      1.05
  323                -14.31      0.04      0.00
  325                148.45      0.95      0.53
  329              13140.54      5.96      3.00
  330                  0.00      0.00      0.00
  333                 -0.00      0.00      0.00
  10                   0.00      0.00      0.00  Pump
  335              13140.54      0.00    -93.60  Pump
   
   
  Node Results at 0:15:00 hrs:
  --------------------------------------------------------
                     Demand      Head  Pressure  Chemical
  Node                  gpm        ft       psi      mg/L
  --------------------------------------------------------
  10                   0.00    146.64     -0.15      0.00
  15                 554.62    132.27     43.45      0.00
  20                   0.00    158.23     12.67      0.00
  35                1574.59    146.56     58.09      0.00
  40                   0.00    145.23      5.77      0.00
  50                   0.00    139.78     10.09      0.00
  60                   0.00    209.04     90.58      0.00
  601                  0.00    302.66    131.14      0.00
  61                   0.00    302.66    131.14      0.00
  101                239.34    146.64     45.34      0.00
  103                167.83    146.61     44.89      0.00
  105                170.57    147.90     51.73      0.00
  107                 68.85    147.89     54.55      0.00
  109                291.56    146.61     54.73      0.00
  111                178.84    147.11     59.41      0.00
  113                 25.21    147.12     62.88      0.00
  115                 65.65    147.93     58.03      0.00
  117                148.31    150.98     59.53      0.00
  119                221.92    158.24     67.70      0.00
  120                  0.00    155.89     67.55      0.00
  121                 52.45    161.60     70.89      0.00
  123                  0.00    166.04     67.18      0.00
  125                 57.46    160.96     64.98      0.00
  127                 22.25    159.09     44.67      0.00
  129                  0.00    159.08     46.83      0.00
  131                 53.86    159.06     66.32      0.00
  139                  7.42    154.47     53.50      0.00
  141                 12.41    151.19     63.78      0.00
  143                  7.81    142.39     63.65      0.00
  145                 34.81    152.19     65.51      0.00
  147                 10.77    152.95     58.26      0.00
  149                 34.11    153.28     59.48      0.00
  151                182.04    156.48     53.29      0.00
  153                 55.65    156.57     39.16      0.00
  157                 65.26    155.84     61.85      0.00
  159                 52.06    152.53     63.49      0.00
  161                 19.91    150.28     63.38      0.00
  163                 11.87    149.83     62.75      0.00
  164                  0.00    149.83     62.75      0.00
  166                  3.28    149.83     65.79      0.00
  167                 18.35    147.98     66.29      0.00
  169                  0.00    147.98     66.29      0.00
  171                 49.57    146.90     65.39      0.00
  173                  0.00    146.88     65.38      0.00
  177                 73.29    146.54     60.03      0.00
  179                  0.00    146.52     60.02      0.00
  181                  0.00    146.57     60.04      0.00
  183                  0.00    146.53     58.72      0.00
  184                  0.00    145.39     56.06      0.00
  185                 32.32    145.96     56.31      0.00
  187                  0.00    146.70     58.15      0.00
  189                135.98    146.98     61.95      0.00
  191                103.19    147.01     52.87      0.00
  193                 89.85    147.10     55.94      0.00
  195                  0.00    147.17     57.05      0.00
  197                 21.47    147.03     53.74      0.00
  199                150.34    141.81     62.31      0.00
  201                 56.21    141.09     61.09      0.00
  203               4302.31    140.94     60.20      0.00
  204                  0.00    146.44     54.35      0.00
  205                 82.35    141.77     52.33      0.00
  206                  0.00    140.75     60.55      0.00
  207                 87.43    141.04     57.21      0.00
  208                  0.00    140.42     53.91      0.00
  209                  1.10    139.85     61.46      0.00
  211                 10.92    139.66     57.48      0.00
  213                 17.56    139.59     57.45      0.00
  215                116.16    139.42     57.38      0.00
  217                 30.52    139.40     57.80      0.00
  219                 52.06    139.39     58.67      0.00
  225                 28.73    139.40     56.94      0.00
  229                 80.87    139.42     55.86      0.00
  231                 20.76    139.41     58.24      0.00
  237                 19.67    139.47     54.37      0.00
  239                 56.21    139.45     54.79      0.00
  241                  0.00    139.45     54.79      0.00
  243                  5.47    139.45     54.36      0.00
  247                 88.68    139.45     52.62      0.00
  249                  0.00    139.45     52.62      0.00
  251                 30.44    139.45     47.42      0.00
  253                 68.70    139.44     44.82      0.00
  255                 50.89    139.48     48.74      0.00
  257                  0.00    152.88     58.88      0.00
  259                  0.00    152.46     55.23      0.00
  261                  0.00    150.94     65.40      0.00
  263                  0.00    150.78     65.33      0.00
  265                  0.00    148.57     64.38      0.00
  267                  0.00    147.11     54.64      0.00
  269                  0.00    147.35     63.85      0.00
  271                  0.00    146.66     60.95      0.00
  273                  0.00    141.77     57.96      0.00
  275                  0.00    141.09     56.80      0.00
  River           -13138.43    220.00      0.00      0.00  Reservoir
  Lake                 0.00    167.00      0.00      0.00  Reservoir
  1                  632.23    145.23      5.77      0.00  Tank
  2                 -201.17    139.78     10.09      0.00  Tank
  3                 2435.22    158.23     12.67      0.00  Tank
   
   
  Link Results at 0:15:00 hrs:
  ----------------------------------------------
                       Flow  Velocity  Headloss
  Link                  gpm       fps   /1000ft
  ----------------------------------------------
  20               -2435.22      0.10      0.00
  40                -632.23      0.03      0.00
  50                 201.17      0.01      0.00
  60               13138.43      9.32      8.90
  101                  0.00      0.00      0.00
  103                173.68      0.28      0.02
  105               -413.02      1.17      0.49
  107                 40.51      0.11      0.01
  109                  5.85      0.01      0.00
  111               -285.72      0.81      0.25
  112                503.62      1.43      0.71
  113                -47.30      0.13      0.01
  114                127.92      0.82      0.41
  115                -28.34      0.18      0.02
  116                 55.40      0.16      0.01
  117                624.09      1.77      1.06
  119               -725.52      2.06      1.40
  120               1135.86      3.22      3.21
  121               1019.18      2.89      2.63
  122                362.07      2.31      2.78
  123               9675.25      4.39      1.68
  125              13138.43      5.96      2.96
  129               3048.66      2.16      0.68
  131               2786.89      1.98      0.58
  133              -2435.22      2.49      1.09
  135                329.42      0.23      0.01
  137                 53.86      0.09      0.00
  145                275.55      1.76      1.68
  147                268.13      1.71      1.60
  149               -562.43      3.59      6.29
  151               -554.62      3.54      6.13
  153                306.71      0.87      0.28
  155                341.52      0.97      0.35
  159               -352.30      1.00      0.37
  161               -386.41      2.47      3.14
  163               -148.66      0.42      0.07
  169                204.31      1.30      0.96
  171                419.79      1.19      0.51
  173               7897.67      3.58      1.15
  175               7832.42      3.56      1.14
  177               7780.35      3.53      1.12
  179               7515.28      3.41      1.05
  180                  3.28      0.01      0.00
  181                  3.28      0.01      0.00
  183               7300.34      3.31      1.00
  185                -18.35      0.12      0.01
  186                348.38      2.22      2.59
  187               6685.43      3.03      0.85
  189               4620.31      2.10      0.43
  191              -2015.55      1.43      0.32
  193              -1574.59      1.12      0.20
  195                589.44      1.67      0.95
  197                516.14      1.46      0.74
  199               -116.09      0.33      0.05
  201               -632.23      1.79      1.08
  202                535.91      3.42      5.75
  203                219.85      1.40      1.10
  204                535.91      1.52      0.80
  205                348.38      0.99      0.36
  207                335.94      0.95      0.34
  209                152.90      0.98      0.56
  211                596.56      1.69      0.97
  213                195.48      0.55      0.12
  215                176.73      0.50      0.10
  217               -233.79      0.66      0.17
  219               -245.16      0.70      0.19
  221                245.16      1.56      1.35
  223                 64.89      0.18      0.02
  225                 86.36      0.24      0.03
  229               4620.31      3.28      1.27
  231               4350.70      3.09      1.13
  233               4302.31      3.05      1.29
  235                119.27      0.34      0.05
  237                463.20      1.31      0.61
  238                477.57      1.35      0.64
  239                101.80      0.29      0.04
  240                477.57      1.35      0.64
  241                477.57      1.35      0.64
  243                476.48      0.76      0.16
  245                298.60      0.48      0.07
  247                227.47      0.36      0.04
  249                111.31      0.18      0.01
  251                 52.06      0.11      0.01
  257                 28.73      0.08      0.00
  261                 53.57      0.34      0.08
  263                 20.76      0.06      0.00
  269                166.95      0.47      0.09
  271                 48.06      0.31      0.07
  273                 99.22      0.28      0.04
  275                 19.50      0.06      0.00
  277                  5.47      0.02      0.00
  281                 14.03      0.06      0.00
  283                 23.51      0.07      0.00
  285                -24.61      0.07      0.00
  287                -50.03      0.20      0.02
  289                201.17      0.82      0.32
  291                 68.70      0.28      0.04
  293                 31.55      0.20      0.03
  295                 -1.11      0.00      0.00
  297                478.75      3.06      4.67
  299                230.01      1.47      1.20
  301                230.01      1.47      1.20
  303                248.74      1.59      1.39
  305                145.34      0.41      0.07
  307                394.08      1.12      0.45
  309                199.80      1.28      0.93
  311                -23.07      0.07      0.00
  313                448.08      1.27      0.57
  315              -2164.03      1.53      0.36
  317                109.62      0.70      0.30
  319                  9.65      0.03      0.00
  321               7500.14      3.40      1.05
  323                 -7.82      0.02      0.00
  325                148.48      0.95      0.53
  329              13138.43      5.96      3.00
  330                  0.00      0.00      0.00
  333                 -0.00      0.00      0.00
  10                   0.00      0.00      0.00  Pump
  335              13138.43      0.00    -93.61  Pump
   
   
  Node Results at 0:20:00 hrs:
  --------------------------------------------------------
                     Demand      Head  Pressure  Chemical
  Node                  gpm        ft       psi      mg/L
  --------------------------------------------------------
  10                   0.00    146.70     -0.13      0.00
  15                 554.62    132.34     43.48      0.00
  20                   0.00    158.31     12.70      0.00
  35                1574.59    146.62     58.11      0.00
  40                   0.00    145.30      5.81      0.00
  50                   0.00    139.71     10.06      0.00
  60                   0.00    209.04     90.58      0.00
  601                  0.00    302.68    131.15      0.00
  61                   0.00    302.68    131.15      0.00
  101                239.34    146.70     45.37      0.00
  103                167.83    146.67     44.92      0.00
  105                170.57    147.95     51.76      0.00
  107                 68.85    147.94     54.57      0.00
  109                291.56    146.67     54.75      0.00
  111                178.84    147.16     59.43      0.00
  113                 25.21    147.18     62.91      0.00
  115                 65.65    147.99     58.06      0.00
  117                148.31    151.04     59.55      0.00
  119                221.92    158.30     67.72      0.00
  120                  0.00    155.95     67.57      0.00
  121                 52.45    161.66     70.92      0.00
  123                  0.00    166.11     67.21      0.00
  125                 57.46    161.03     65.01      0.00
  127                 22.25    159.16     44.70      0.00
  129                  0.00    159.15     46.86      0.00
  131                 53.86    159.14     66.35      0.00
  139                  7.42    154.54     53.53      0.00
  141                 12.41    151.26     63.81      0.00
  143                  7.81    142.45     63.67      0.00
  145                 34.81    152.26     65.54      0.00
  147                 10.77    153.02     58.29      0.00
  149                 34.11    153.34     59.51      0.00
  151                182.04    156.54     53.31      0.00
  153                 55.65    156.63     39.18      0.00
  157                 65.26    155.90     61.87      0.00
  159                 52.06    152.58     63.51      0.00
  161                 19.91    150.34     63.41      0.00
  163                 11.87    149.88     62.78      0.00
  164                  0.00    149.88     62.78      0.00
  166                  3.28    149.88     65.81      0.00
  167                 18.35    148.03     66.31      0.00
  169                  0.00    148.03     66.31      0.00
  171                 49.57    146.96     65.41      0.00
  173                  0.00    146.93     65.40      0.00
  177                 73.29    146.59     60.05      0.00
  179                  0.00    146.57     60.04      0.00
  181                  0.00    146.62     60.07      0.00
  183                  0.00    146.58     58.75      0.00
  184                  0.00    145.44     56.09      0.00
  185                 32.32    146.02     56.34      0.00
  187                  0.00    146.75     58.17      0.00
  189                135.98    147.04     61.98      0.00
  191                103.19    147.07     52.89      0.00
  193                 89.85    147.16     55.96      0.00
  195                  0.00    147.23     57.08      0.00
  197                 21.47    147.09     53.77      0.00
  199                150.34    141.85     62.33      0.00
  201                 56.21    141.13     61.11      0.00
  203               4302.31    140.97     60.22      0.00
  204                  0.00    146.49     54.38      0.00
  205                 82.35    141.81     52.35      0.00
  206                  0.00    140.77     60.56      0.00
  207                 87.43    141.07     57.23      0.00
  208                  0.00    140.43     53.92      0.00
  209                  1.10    139.84     61.46      0.00
  211                 10.92    139.64     57.47      0.00
  213                 17.56    139.57     57.44      0.00
  215                116.16    139.40     57.37      0.00
  217                 30.52    139.38     57.80      0.00
  219                 52.06    139.37     58.66      0.00
  225                 28.73    139.38     56.93      0.00
  229                 80.87    139.39     55.85      0.00
  231                 20.76    139.38     58.23      0.00
  237                 19.67    139.43     54.35      0.00
  239                 56.21    139.41     54.77      0.00
  241                  0.00    139.41     54.77      0.00
  243                  5.47    139.41     54.34      0.00
  247                 88.68    139.41     52.61      0.00
  249                  0.00    139.41     52.61      0.00
  251                 30.44    139.41     47.41      0.00
  253                 68.70    139.39     44.80      0.00
  255                 50.89    139.44     48.72      0.00
  257                  0.00    152.94     58.90      0.00
  259                  0.00    152.52     55.25      0.00
  261                  0.00    151.00     65.43      0.00
  263                  0.00    150.84     65.36      0.00
  265                  0.00    148.62     64.40      0.00
  267                  0.00    147.16     54.67      0.00
  269                  0.00    147.41     63.87      0.00
  271                  0.00    146.72     60.97      0.00
  273                  0.00    141.81     57.98      0.00
  275                  0.00    141.13     56.82      0.00
  River           -13136.31    220.00      0.00      0.00  Reservoir
  Lake                 0.00    167.00      0.00      0.00  Reservoir
  1                  627.04    145.30      5.81      0.00  Tank
  2                 -192.26    139.71     10.06      0.00  Tank
  3                 2429.40    158.31     12.70      0.00  Tank
   
   
  Link Results at 0:20:00 hrs:
  ----------------------------------------------
                       Flow  Velocity  Headloss
  Link                  gpm       fps   /1000ft
  ----------------------------------------------
  20               -2429.40      0.10      0.00
  40                -627.04      0.03      0.00
  50                 192.26      0.01      0.00
  60               13136.31      9.32      8.90
  101                  0.00      0.00      0.00
  103                173.79      0.28      0.02
  105               -413.13      1.17      0.49
  107                 40.58      0.12      0.01
  109                  5.96      0.01      0.00
  111               -285.60      0.81      0.25
  112                503.88      1.43      0.71
  113                -47.10      0.13      0.01
  114                127.99      0.82      0.41
  115                -28.26      0.18      0.02
  116                 55.68      0.16      0.01
  117                624.28      1.77      1.06
  119               -725.78      2.06      1.40
  120               1136.19      3.22      3.21
  121               1019.48      2.89      2.63
  122                362.18      2.31      2.78
  123               9678.64      4.39      1.68
  125              13136.31      5.96      2.96
  129               3043.03      2.16      0.68
  131               2781.19      1.97      0.58
  133              -2429.40      2.48      1.09
  135                329.54      0.23      0.01
  137                 53.86      0.09      0.00
  145                275.68      1.76      1.68
  147                268.26      1.71      1.60
  149               -562.43      3.59      6.29
  151               -554.62      3.54      6.13
  153                306.59      0.87      0.28
  155                341.40      0.97      0.35
  159               -352.17      1.00      0.37
  161               -386.28      2.47      3.14
  163               -148.73      0.42      0.07
  169                204.38      1.30      0.97
  171                419.60      1.19      0.51
  173               7900.93      3.59      1.16
  175               7835.67      3.56      1.14
  177               7783.61      3.53      1.12
  179               7518.50      3.41      1.05
  180                  3.28      0.01      0.00
  181                  3.28      0.01      0.00
  183               7303.57      3.31      1.00
  185                -18.35      0.12      0.01
  186                348.85      2.23      2.60
  187               6688.80      3.04      0.85
  189               4628.12      2.10      0.43
  191              -2011.11      1.43      0.32
  193              -1574.59      1.12      0.20
  195                585.04      1.66      0.94
  197                511.74      1.45      0.73
  199               -115.30      0.33      0.05
  201               -627.04      1.78      1.07
  202                537.00      3.43      5.78
  203                220.47      1.41      1.11
  204                537.00      1.52      0.80
  205                348.85      0.99      0.36
  207                335.77      0.95      0.34
  209                153.09      0.98      0.57
  211                596.43      1.69      0.97
  213                195.77      0.56      0.12
  215                176.92      0.50      0.10
  217               -233.90      0.66      0.17
  219               -245.21      0.70      0.19
  221                245.21      1.57      1.35
  223                 65.06      0.18      0.02
  225                 86.53      0.25      0.03
  229               4628.12      3.28      1.27
  231               4356.99      3.09      1.14
  233               4302.31      3.05      1.29
  235                120.79      0.34      0.05
  237                465.72      1.32      0.62
  238                486.48      1.38      0.67
  239                108.19      0.31      0.04
  240                486.48      1.38      0.67
  241                486.48      1.38      0.67
  243                485.38      0.77      0.16
  245                300.39      0.48      0.07
  247                227.47      0.36      0.04
  249                111.31      0.18      0.01
  251                 52.06      0.11      0.01
  257                 28.73      0.08      0.00
  261                 55.36      0.35      0.09
  263                 20.76      0.06      0.00
  269                174.07      0.49      0.10
  271                 46.28      0.30      0.06
  273                108.12      0.31      0.04
  275                 22.83      0.06      0.00
  277                  5.47      0.02      0.00
  281                 17.36      0.07      0.00
  283                 29.08      0.08      0.00
  285                -26.76      0.08      0.00
  287                -44.55      0.18      0.02
  289                192.26      0.79      0.29
  291                 68.70      0.28      0.04
  293                 28.12      0.18      0.02
  295                  2.32      0.01      0.00
  297                478.89      3.06      4.67
  299                230.08      1.47      1.20
  301                230.08      1.47      1.20
  303                248.81      1.59      1.39
  305                145.39      0.41      0.07
  307                394.20      1.12      0.45
  309                199.78      1.28      0.93
  311                -22.86      0.06      0.00
  313                447.92      1.27      0.57
  315              -2159.63      1.53      0.36
  317                109.72      0.70      0.30
  319                 11.07      0.03      0.00
  321               7503.35      3.41      1.05
  323                 -1.53      0.00      0.00
  325                148.51      0.95      0.53
  329              13136.31      5.96      3.00
  330                  0.00      0.00      0.00
  333                 -0.00      0.00      0.00
  10                   0.00      0.00      0.00  Pump
  335              13136.31      0.00    -93.63  Pump
   
   
  Node Results at 0:25:00 hrs:
  --------------------------------------------------------
                     Demand      Head  Pressure  Chemical
  Node                  gpm        ft       psi      mg/L
  --------------------------------------------------------
  10                   0.00    146.76     -0.11      0.00
  15                 554.62    132.40     43.50      0.00
  20                   0.00    158.39     12.73      0.00
  35                1574.59    146.67     58.14      0.00
  40                   0.00    145.38      5.84      0.00
  50                   0.00    139.64     10.03      0.00
  60                   0.00    209.05     90.58      0.00
  601                  0.00    302.70    131.16      0.00
  61                   0.00    302.70    131.16      0.00
  101                239.34    146.76     45.39      0.00
  103                167.83    146.72     44.94      0.00
  105                170.57    148.01     51.78      0.00
  107                 68.85    148.00     54.59      0.00
  109                291.56    146.72     54.78      0.00
  111                178.84    147.22     59.46      0.00
  113                 25.21    147.23     62.93      0.00
  115                 65.65    148.05     58.08      0.00
  117                148.31    151.10     59.58      0.00
  119                221.92    158.36     67.75      0.00
  120                  0.00    156.01     67.60      0.00
  121                 52.45    161.73     70.94      0.00
  123                  0.00    166.17     67.23      0.00
  125                 57.46    161.10     65.04      0.00
  127                 22.25    159.24     44.73      0.00
  129                  0.00    159.23     46.90      0.00
  131                 53.86    159.21     66.39      0.00
  139                  7.42    154.60     53.56      0.00
  141                 12.41    151.33     63.84      0.00
  143                  7.81    142.52     63.70      0.00
  145                 34.81    152.32     65.57      0.00
  147                 10.77    153.08     58.32      0.00
  149                 34.11    153.41     59.54      0.00
  151                182.04    156.61     53.34      0.00
  153                 55.65    156.69     39.21      0.00
  157                 65.26    155.96     61.90      0.00
  159                 52.06    152.64     63.54      0.00
  161                 19.91    150.39     63.43      0.00
  163                 11.87    149.94     62.80      0.00
  164                  0.00    149.94     62.80      0.00
  166                  3.28    149.94     65.84      0.00
  167                 18.35    148.09     66.33      0.00
  169                  0.00    148.09     66.33      0.00
  171                 49.57    147.01     65.43      0.00
  173                  0.00    146.99     65.42      0.00
  177                 73.29    146.65     60.08      0.00
  179                  0.00    146.63     60.07      0.00
  181                  0.00    146.68     60.09      0.00
  183                  0.00    146.64     58.77      0.00
  184                  0.00    145.49     56.11      0.00
  185                 32.32    146.07     56.36      0.00
  187                  0.00    146.81     58.20      0.00
  189                135.98    147.09     62.00      0.00
  191                103.19    147.12     52.92      0.00
  193                 89.85    147.21     55.99      0.00
  195                  0.00    147.28     57.10      0.00
  197                 21.47    147.14     53.79      0.00
  199                150.34    141.88     62.34      0.00
  201                 56.21    141.16     61.12      0.00
  203               4302.31    141.01     60.23      0.00
  204                  0.00    146.55     54.40      0.00
  205                 82.35    141.85     52.36      0.00
  206                  0.00    140.79     60.57      0.00
[...]
  219                 71.90    136.80     57.54      0.00
  225                 39.67    136.81     55.81      0.00
  229                111.67    137.05     54.83      0.00
  231                 28.68    137.04     57.21      0.00
  237                 27.16    137.24     53.40      0.00
  239                 77.62    137.25     53.84      0.00
  241                  0.00    137.25     53.84      0.00
  243                  7.55    137.25     53.40      0.00
  247                122.46    137.27     51.68      0.00
  249                  0.00    137.27     51.68      0.00
  251                 42.04    137.30     46.49      0.00
  253                 94.86    137.60     44.02      0.00
  255                 70.28    137.69     47.96      0.00
  257                  0.00    150.65     57.91      0.00
  259                  0.00    150.17     54.24      0.00
  261                  0.00    148.42     64.31      0.00
  263                  0.00    148.23     64.23      0.00
  265                  0.00    147.35     63.85      0.00
  267                  0.00    145.53     53.96      0.00
  269                  0.00    146.08     63.30      0.00
  271                  0.00    145.67     60.52      0.00
  273                  0.00    139.39     56.93      0.00
  275                  0.00    138.58     55.71      0.00
  River           -13222.80    220.00      0.00      0.00  Reservoir
  Lake                 0.00    167.00      0.00      0.00  Reservoir
  1                 -821.48    147.76      6.87      0.00  Tank
  2                 -480.37    139.15      9.81      0.00  Tank
  3                  219.28    160.11     13.48      0.00  Tank
   
   
  Link Results at 23:55:00 hrs:
  ----------------------------------------------
                       Flow  Velocity  Headloss
  Link                  gpm       fps   /1000ft
  ----------------------------------------------
  20                -219.28      0.01      0.00
  40                 821.48      0.03      0.00
  50                 480.37      0.02      0.00
  60               13222.80      9.38      9.01
  101                  0.00      0.00      0.00
  103                128.28      0.20      0.01
  105               -458.80      1.30      0.60
  107                -12.73      0.04      0.00
  109               -103.48      0.17      0.01
  111               -506.12      1.44      0.72
  112                440.19      1.25      0.55
  113               -206.52      0.59      0.14
  114                 88.99      0.57      0.21
  115               -107.80      0.69      0.30
  116               -152.35      0.43      0.08
  117                681.61      1.93      1.25
  119               -727.64      2.06      1.41
  120               1236.33      3.51      3.75
  121               1097.90      3.11      3.01
  122                377.74      2.41      3.01
  123               9779.88      4.44      1.72
  125              11104.72      5.04      2.17
  129                874.66      0.62      0.07
  131                582.71      0.41      0.03
  133               -219.28      0.22      0.01
  135                332.70      0.24      0.01
  137                 74.39      0.12      0.01
  145                258.32      1.65      1.49
  147                248.07      1.58      1.38
  149               -382.31      2.44      3.08
  151               -371.52      2.37      2.92
  153                151.38      0.43      0.08
  155                199.45      0.57      0.13
  159               -214.33      0.61      0.15
  161               -261.43      1.67      1.52
  163               -135.75      0.39      0.06
  169                212.61      1.36      1.04
  171                377.08      1.07      0.42
  173               7860.01      3.57      1.14
  175               7769.89      3.53      1.12
  177               7698.00      3.49      1.10
  179               7397.19      3.36      1.02
  180                  4.52      0.01      0.00
  181                  4.52      0.01      0.00
  183               7151.05      3.25      0.96
  185                -25.33      0.16      0.02
  186                299.29      1.91      1.96
  187               6489.69      2.95      0.80
  189               5192.25      2.36      0.53
  191              -1228.98      0.87      0.13
  193              -1708.34      1.21      0.23
  195               -367.55      1.04      0.40
  197               -468.77      1.33      0.62
  199                352.71      1.00      0.37
  201                821.48      2.33      1.76
  202                588.10      3.75      6.83
  203                333.44      2.13      2.39
  204                588.10      1.67      0.95
  205                299.29      0.85      0.27
  207                -19.28      0.05      0.00
  209                242.28      1.55      1.32
  211                636.03      1.80      1.10
  213                 57.01      0.16      0.01
  215               -113.44      0.32      0.05
  217               -335.55      0.95      0.34
  219               -273.31      0.78      0.23
  221                273.31      1.74      1.65
  223               -136.03      0.39      0.06
  225               -106.38      0.30      0.04
  229               5192.25      3.68      1.57
  231               4837.45      3.43      1.38
  233               4803.71      3.41      1.58
  235                147.18      0.42      0.07
  237                500.58      1.42      0.70
  238                456.94      1.30      0.59
  239                 77.09      0.22      0.02
  240                456.94      1.30      0.59
  241                456.94      1.30      0.59
  243                455.42      0.73      0.15
  245                381.27      0.61      0.10
  247                314.12      0.50      0.07
  249                153.71      0.25      0.02
  251                 71.90      0.15      0.01
  257                 39.67      0.11      0.01
  261                 42.89      0.27      0.05
  263                 28.68      0.08      0.00
  269                 59.07      0.17      0.01
  271                 97.46      0.62      0.24
  273                -65.55      0.19      0.02
  275                -48.97      0.14      0.01
  277                  7.55      0.02      0.00
  281                -56.52      0.23      0.03
  283                -94.20      0.27      0.03
  285                 17.44      0.05      0.00
  287               -196.42      0.80      0.30
  289                480.37      1.96      1.58
  291                 94.86      0.39      0.08
  293                118.80      0.76      0.35
  295                -76.76      0.22      0.02
  297                516.16      3.29      5.37
  299                248.19      1.58      1.38
  301                248.19      1.58      1.38
  303                267.97      1.71      1.59
  305                165.45      0.47      0.09
  307                433.42      1.23      0.54
  309                225.23      1.44      1.16
  311               -338.66      0.96      0.34
  313                524.22      1.49      0.77
  315              -1340.79      0.95      0.15
  317                120.97      0.77      0.37
  319                 26.22      0.07      0.00
  321               7376.28      3.35      1.02
  323                -43.88      0.12      0.01
  325                111.81      0.71      0.32
  329              13222.80      6.00      3.04
  330                  0.00      0.00      0.00
  333                 -0.00      0.00      0.00
  10                   0.00      0.00      0.00  Pump
  335              13222.80      0.00    -92.87  Pump
   
   
  Node Results at 24:00:00 hrs:
  --------------------------------------------------------
                     Demand      Head  Pressure  Chemical
  Node                  gpm        ft       psi      mg/L
  --------------------------------------------------------
  10                   0.00    148.42      0.62      0.00
  15                 554.62    134.07     44.23      0.00
  20                   0.00    160.12     13.48      0.00
  35                1574.59    148.37     58.87      0.00
  40                   0.00    147.66      6.83      0.00
  50                   0.00    138.99      9.74      0.00
  60                   0.00    209.13     90.62      0.00
  601                  0.00    303.26    131.40      0.00
  61                   0.00    303.26    131.40      0.00
  101                239.34    148.42     46.11      0.00
  103                167.83    148.39     45.67      0.00
  105                170.57    149.67     52.50      0.00
  107                 68.85    149.66     55.32      0.00
  109                291.56    148.39     55.50      0.00
  111                178.84    148.89     60.18      0.00
  113                 25.21    148.90     63.65      0.00
  115                 65.65    149.71     58.80      0.00
  117                148.31    152.76     60.30      0.00
  119                221.92    160.00     68.46      0.00
  120                  0.00    157.66     68.31      0.00
  121                 52.45    163.36     71.65      0.00
  123                  0.00    167.77     67.93      0.00
  125                 57.46    162.74     65.75      0.00
  127                 22.25    160.94     45.47      0.00
  129                  0.00    160.93     47.63      0.00
  131                 53.86    160.91     67.12      0.00
  139                  7.42    156.28     54.29      0.00
  141                 12.41    152.99     64.56      0.00
  143                  7.81    144.18     64.42      0.00
  145                 34.81    153.98     66.29      0.00
  147                 10.77    154.74     59.03      0.00
  149                 34.11    155.06     60.26      0.00
  151                182.04    158.25     54.05      0.00
  153                 55.65    158.34     39.92      0.00
  157                 65.26    157.60     62.61      0.00
  159                 52.06    154.29     64.25      0.00
  161                 19.91    152.05     64.15      0.00
  163                 11.87    151.59     63.52      0.00
  164                  0.00    151.59     63.52      0.00
  166                  3.28    151.59     66.55      0.00
  167                 18.35    149.75     67.05      0.00
  169                  0.00    149.75     67.05      0.00
  171                 49.57    148.67     66.15      0.00
  173                  0.00    148.65     66.14      0.00
  177                 73.29    148.36     60.82      0.00
  179                  0.00    148.35     60.81      0.00
  181                  0.00    148.38     60.83      0.00
  183                  0.00    148.35     59.52      0.00
  184                  0.00    147.09     56.80      0.00
  185                 32.32    147.71     57.07      0.00
  187                  0.00    148.47     58.92      0.00
  189                135.98    148.77     62.73      0.00
  191                103.19    148.79     53.64      0.00
  193                 89.85    148.89     56.71      0.00
  195                  0.00    148.95     57.83      0.00
  197                 21.47    148.81     54.51      0.00
  199                150.34    143.25     62.94      0.00
  201                 56.21    142.50     61.70      0.00
  203               4302.31    142.34     60.81      0.00
  204                  0.00    148.20     55.12      0.00
  205                 82.35    143.18     52.94      0.00
  206                  0.00    141.74     60.98      0.00
  207                 87.43    142.27     57.74      0.00
  208                  0.00    141.15     54.23      0.00
  209                  1.10    140.12     61.58      0.00
  211                 10.92    139.77     57.53      0.00
  213                 17.56    139.69     57.49      0.00
  215                116.16    139.52     57.42      0.00
  217                 30.52    139.50     57.85      0.00
  219                 52.06    139.49     58.71      0.00
  225                 28.73    139.49     56.98      0.00
  229                 80.87    139.18     55.76      0.00
  231                 20.76    139.18     58.14      0.00
  237                 19.67    139.19     54.24      0.00
  239                 56.21    139.07     54.62      0.00
  241                  0.00    139.06     54.62      0.00
  243                  5.47    139.06     54.19      0.00
  247                 88.68    139.04     52.45      0.00
  249                  0.00    139.04     52.45      0.00
  251                 30.44    139.02     47.24      0.00
  253                 68.70    138.94     44.60      0.00
  255                 50.89    138.98     48.52      0.00
  257                  0.00    154.65     59.64      0.00
  259                  0.00    154.23     56.00      0.00
  261                  0.00    152.71     66.17      0.00
  263                  0.00    152.55     66.10      0.00
  265                  0.00    150.34     65.14      0.00
  267                  0.00    148.89     55.41      0.00
  269                  0.00    149.13     64.62      0.00
  271                  0.00    148.46     61.73      0.00
  273                  0.00    143.19     58.58      0.00
  275                  0.00    142.49     57.41      0.00
  River           -13080.15    220.00      0.00      0.00  Reservoir
  Lake                 0.00    167.00      0.00      0.00  Reservoir
  1                  450.03    147.66      6.83      0.00  Tank
  2                  -21.97    138.99      9.74      0.00  Tank
  3                 2379.95    160.12     13.48      0.00  Tank
   
   
  Link Results at 24:00:00 hrs:
  ----------------------------------------------
                       Flow  Velocity  Headloss
  Link                  gpm       fps   /1000ft
  ----------------------------------------------
  20               -2379.95      0.10      0.00
  40                -450.03      0.02      0.00
  50                  21.97      0.00      0.00
  60               13080.15      9.28      8.83
  101                  0.00      0.00      0.00
  103                173.39      0.28      0.02
  105               -412.73      1.17      0.49
  107                 40.31      0.11      0.01
  109                  5.56      0.01      0.00
  111               -286.00      0.81      0.25
  112                502.98      1.43      0.71
  113                -48.29      0.14      0.01
  114                127.70      0.82      0.40
  115                -28.54      0.18      0.03
  116                 54.20      0.15      0.01
  117                623.60      1.77      1.06
  119               -724.86      2.06      1.40
  120               1134.92      3.22      3.20
  121               1018.40      2.89      2.62
  122                361.86      2.31      2.78
  123               9671.29      4.39      1.68
  125              13080.15      5.94      2.94
  129               2994.55      2.12      0.66
  131               2732.56      1.94      0.56
  133              -2379.95      2.43      1.05
  135                330.36      0.23      0.01
  137                 53.86      0.09      0.00
  145                276.50      1.76      1.69
  147                269.07      1.72      1.61
  149               -562.43      3.59      6.29
  151               -554.62      3.54      6.13
  153                305.77      0.87      0.28
  155                340.58      0.97      0.34
  159               -351.36      1.00      0.37
  161               -385.46      2.46      3.13
  163               -148.88      0.42      0.07
  169                204.54      1.31      0.97
  171                418.63      1.19      0.51
  173               7895.81      3.58      1.15
  175               7830.56      3.55      1.14
  177               7778.49      3.53      1.12
  179               7514.07      3.41      1.05
  180                  3.28      0.01      0.00
  181                  3.28      0.01      0.00
  183               7300.30      3.31      1.00
  185                -18.35      0.12      0.01
  186                355.06      2.27      2.68
  187               6692.72      3.04      0.85
  189               4776.64      2.17      0.45
  191              -1866.51      1.32      0.28
  193              -1574.59      1.12      0.20
  195                438.58      1.24      0.55
  197                365.29      1.04      0.39
  199                -84.75      0.24      0.03
  201               -450.03      1.28      0.58
  202                558.77      3.57      6.22
  203                236.03      1.51      1.26
  204                558.77      1.59      0.86
  205                355.06      1.01      0.37
  207                320.77      0.91      0.31
  209                157.42      1.00      0.60
  211                589.23      1.67      0.95
  213                197.64      0.56      0.13
  215                171.60      0.49      0.10
  217               -235.89      0.67      0.17
  219               -244.52      0.69      0.19
  221                244.52      1.56      1.35
  223                 64.94      0.18      0.02
  225                 86.42      0.25      0.03
  229               4776.64      3.39      1.35
  231               4467.51      3.17      1.19
  233               4302.31      3.05      1.29
  235                158.79      0.45      0.08
  237                523.55      1.49      0.76
  238                656.76      1.86      1.16
  239                220.65      0.63      0.15
  240                656.76      1.86      1.16
  241                656.76      1.86      1.16
  243                655.67      1.05      0.29
  245                339.15      0.54      0.08
  247                227.47      0.36      0.04
  249                111.31      0.18      0.01
  251                 52.06      0.11      0.01
  257                 28.73      0.08      0.00
  261                 94.12      0.60      0.23
  263                 20.76      0.06      0.00
  269                305.59      0.87      0.28
  271                  7.51      0.05      0.00
  273                278.41      0.79      0.24
  275                 86.61      0.25      0.03
  277                  5.47      0.02      0.00
  281                 81.14      0.33      0.06
  283                135.59      0.38      0.06
  285                -73.26      0.21      0.02
  287                 65.73      0.27      0.04
  289                 21.97      0.09      0.01
  291                 68.70      0.28      0.04
  293                -31.89      0.20      0.03
  295                 62.33      0.18      0.01
  297                478.38      3.05      4.66
  299                229.84      1.47      1.20
  301                229.84      1.47      1.20
  303                248.55      1.59      1.39
  305                145.22      0.41      0.07
  307                393.77      1.12      0.45
  309                198.62      1.27      0.92
  311                -27.03      0.08      0.00
  313                442.58      1.26      0.56
  315              -2013.17      1.43      0.32
  317                111.66      0.71      0.32
  319                 47.13      0.13      0.01
  321               7498.92      3.40      1.05
  323                108.99      0.31      0.04
  325                146.66      0.94      0.52
  329              13080.15      5.94      2.98
  330                  0.00      0.00      0.00
  333                 -0.00      0.00      0.00
  10                   0.00      0.00      0.00  Pump
  335              13080.15      0.00    -94.13  Pump
   
  Analysis ended Wed May 06 17:20:09 2020
