  Page 1                                    Wed May 06 17:20:25 2020

  ******************************************************************
  *                           E P A N E T                          *
  *                   Hydraulic and Water Quality                  *
  *                   Analysis for Pipe Networks                   *
  *                         Version 2.00.12                        *
  ******************************************************************
  
  Analysis begun Wed May 06 17:20:25 2020

   
  Hydraulic Status:
  -----------------------------------------------------------------------
     0:00:00: Balanced after 5 trials
     0:00:00: Reservoir River is emptying
     0:00:00: Reservoir Lake is closed
     0:00:00: Tank 1 is filling at 13.10 ft
     0:00:00: Tank 2 is emptying at 23.50 ft
     0:00:00: Tank 3 is filling at 29.00 ft
   
     0:05:00: Balanced after 2 trials
   
     0:10:00: Balanced after 2 trials
   
     0:15:00: Balanced after 2 trials
   
     0:20:00: Balanced after 2 trials
   
     0:25:00: Balanced after 2 trials
   
     0:30:00: Balanced after 2 trials
   
     0:35:00: Balanced after 2 trials
   
     0:40:00: Balanced after 2 trials
   
     0:45:00: Balanced after 2 trials
   
     0:50:00: Balanced after 2 trials
   
     0:55:00: Balanced after 2 trials
   
     1:00:00: Pump 10 changed by timer control
     1:00:00: Balanced after 7 trials
     1:00:00: Reservoir Lake is emptying
     1:00:00: Pump 10 changed from closed to open
   
     1:05:00: Balanced after 2 trials
   
     1:10:00: Balanced after 2 trials
   
     1:15:00: Balanced after 2 trials
   
     1:20:00: Balanced after 2 trials
   
     1:25:00: Balanced after 2 trials
   
     1:30:00: Balanced after 2 trials
   
     1:35:00: Balanced after 2 trials
   
     1:40:00: Balanced after 2 trials
   
     1:45:00: Balanced after 2 trials
   
     1:50:00: Balanced after 2 trials
   
     1:55:00: Balanced after 2 trials
   
     2:00:00: Balanced after 3 trials
     2:00:00: Tank 2 is filling at 21.20 ft
   
     2:05:00: Balanced after 1 trials
   
     2:10:00: Balanced after 1 trials
   
     2:15:00: Balanced after 1 trials
   
     2:20:00: Balanced after 1 trials
   
     2:25:00: Balanced after 1 trials
   
     2:30:00: Balanced after 1 trials
   
     2:35:00: Balanced after 1 trials
   
     2:40:00: Balanced after 1 trials
   
     2:45:00: Balanced after 1 trials
   
     2:50:00: Balanced after 1 trials
   
     2:55:00: Balanced after 1 trials
   
     3:00:00: Balanced after 4 trials
     3:00:00: Tank 2 is emptying at 22.49 ft
   
     3:05:00: Balanced after 2 trials
   
     3:10:00: Balanced after 2 trials
   
     3:15:00: Balanced after 2 trials
   
     3:20:00: Balanced after 2 trials
   
     3:25:00: Balanced after 2 trials
   
     3:30:00: Balanced after 2 trials
   
     3:35:00: Balanced after 2 trials
   
     3:40:00: Balanced after 1 trials
   
     3:45:00: Balanced after 1 trials
   
     3:50:00: Balanced after 1 trials
   
     3:55:00: Balanced after 1 trials
   
     4:00:00: Balanced after 4 trials
     4:00:00: Tank 2 is filling at 21.72 ft
   
     4:05:00: Balanced after 1 trials
   
     4:10:00: Balanced after 1 trials
   
     4:15:00: Balanced after 1 trials
   
     4:20:00: Balanced after 1 trials
   
     4:22:39: Pump 335 changed by Tank 1 control
     4:22:39: Pipe 330 changed by Tank 1 control
     4:22:39: Balanced after 4 trials
     4:22:39: Pipe 330 changed from closed to open
     4:22:39: Pump 335 changed from open to closed
   
     4:25:00: Balanced after 1 trials
   
     4:30:00: Balanced after 2 trials
   
     4:35:00: Balanced after 2 trials
   
     4:40:00: Balanced after 2 trials
   
     4:45:00: Balanced after 2 trials
   
     4:50:00: Balanced after 2 trials
   
     4:55:00: Balanced after 2 trials
   
     5:00:00: Balanced after 3 trials
     5:00:00: Tank 3 is emptying at 34.38 ft
   
     5:05:00: Balanced after 2 trials
   
     5:10:00: Balanced after 2 trials
   
     5:15:00: Balanced after 2 trials
   
     5:20:00: Balanced after 2 trials
   
     5:25:00: Balanced after 2 trials
   
     5:30:00: Balanced after 2 trials
   
     5:35:00: Balanced after 2 trials
   
     5:40:00: Balanced after 2 trials
   
     5:45:00: Balanced after 2 trials
   
     5:50:00: Balanced after 2 trials
   
     5:55:00: Balanced after 2 trials
   
     6:00:00: Balanced after 3 trials
     6:00:00: Tank 3 is filling at 34.22 ft
   
     6:05:00: Balanced after 2 trials
   
     6:10:00: Balanced after 2 trials
   
     6:15:00: Balanced after 2 trials
   
     6:20:00: Balanced after 2 trials
   
     6:25:00: Balanced after 2 trials
   
     6:30:00: Balanced after 2 trials
   
     6:35:00: Balanced after 2 trials
   
     6:40:00: Balanced after 2 trials
   
     6:45:00: Balanced after 2 trials
   
     6:50:00: Balanced after 2 trials
   
     6:55:00: Balanced after 2 trials
   
     7:00:00: Balanced after 4 trials
     7:00:00: Tank 1 is emptying at 21.80 ft
   
     7:05:00: Balanced after 2 trials
   
     7:10:00: Balanced after 2 trials
   
     7:15:00: Balanced after 2 trials
   
     7:20:00: Balanced after 2 trials
   
     7:25:00: Balanced after 2 trials
   
     7:30:00: Balanced after 2 trials
   
     7:35:00: Balanced after 2 trials
   
     7:40:00: Balanced after 2 trials
   
     7:45:00: Balanced after 1 trials
   
     7:50:00: Balanced after 1 trials
   
     7:55:00: Balanced after 1 trials
   
     8:00:00: Balanced after 3 trials
     8:00:00: Tank 1 is filling at 21.49 ft
   
     8:05:00: Balanced after 1 trials
   
     8:10:00: Balanced after 1 trials
   
     8:15:00: Balanced after 1 trials
   
     8:20:00: Balanced after 1 trials
   
     8:25:00: Balanced after 1 trials
   
     8:30:00: Balanced after 1 trials
   
     8:35:00: Balanced after 1 trials
   
     8:40:00: Balanced after 1 trials
   
     8:45:00: Balanced after 1 trials
   
     8:50:00: Balanced after 1 trials
   
     8:55:00: Balanced after 1 trials
   
     9:00:00: Balanced after 3 trials
     9:00:00: Tank 1 is emptying at 21.75 ft
     9:00:00: Tank 3 is emptying at 35.13 ft
   
     9:05:00: Balanced after 1 trials
   
     9:10:00: Balanced after 1 trials
   
     9:15:00: Balanced after 1 trials
   
     9:20:00: Balanced after 1 trials
   
     9:25:00: Balanced after 1 trials
   
     9:30:00: Balanced after 1 trials
   
     9:35:00: Balanced after 1 trials
   
     9:40:00: Balanced after 1 trials
   
     9:45:00: Balanced after 1 trials
   
     9:50:00: Balanced after 1 trials
   
     9:55:00: Balanced after 1 trials
   
    10:00:00: Balanced after 3 trials
    10:00:00: Tank 1 is filling at 21.70 ft
   
    10:05:00: Balanced after 2 trials
   
    10:10:00: Balanced after 2 trials
   
    10:15:00: Balanced after 2 trials
   
    10:20:00: Balanced after 2 trials
   
    10:25:00: Balanced after 2 trials
   
    10:30:00: Balanced after 2 trials
   
    10:35:00: Balanced after 2 trials
   
    10:40:00: Balanced after 2 trials
   
    10:45:00: Balanced after 2 trials
   
    10:50:00: Balanced after 2 trials
   
    10:55:00: Balanced after 2 trials
   
    11:00:00: Balanced after 4 trials
    11:00:00: Tank 1 is emptying at 22.09 ft
   
    11:05:00: Balanced after 1 trials
   
    11:10:00: Balanced after 1 trials
   
    11:15:00: Balanced after 1 trials
   
    11:20:00: Balanced after 1 trials
   
    11:25:00: Balanced after 1 trials
   
    11:30:00: Balanced after 1 trials
   
    11:35:00: Balanced after 1 trials
   
    11:40:00: Balanced after 1 trials
   
    11:45:00: Balanced after 1 trials
   
    11:50:00: Balanced after 1 trials
   
    11:55:00: Balanced after 1 trials
   
    12:00:00: Balanced after 3 trials
    12:00:00: Tank 2 is emptying at 27.83 ft
   
    12:05:00: Balanced after 1 trials
   
    12:10:00: Balanced after 1 trials
   
    12:15:00: Balanced after 1 trials
   
    12:20:00: Balanced after 1 trials
   
    12:25:00: Balanced after 1 trials
   
    12:30:00: Balanced after 1 trials
   
    12:35:00: Balanced after 1 trials
   
    12:40:00: Balanced after 1 trials
   
    12:45:00: Balanced after 1 trials
   
    12:50:00: Balanced after 1 trials
   
    12:55:00: Balanced after 1 trials
   
    13:00:00: Balanced after 3 trials
   
    13:05:00: Balanced after 1 trials
   
    13:10:00: Balanced after 1 trials
   
    13:15:00: Balanced after 1 trials
   
    13:20:00: Balanced after 1 trials
   
    13:25:00: Balanced after 1 trials
   
    13:30:00: Balanced after 1 trials
   
    13:35:00: Balanced after 1 trials
   
    13:40:00: Balanced after 1 trials
   
    13:45:00: Balanced after 1 trials
   
    13:50:00: Balanced after 1 trials
   
    13:55:00: Balanced after 1 trials
   
    14:00:00: Balanced after 3 trials
    14:00:00: Tank 1 is filling at 21.47 ft
    14:00:00: Tank 2 is filling at 27.19 ft
   
    14:05:00: Balanced after 2 trials
   
    14:10:00: Balanced after 2 trials
   
    14:15:00: Balanced after 2 trials
   
    14:20:00: Balanced after 2 trials
   
    14:25:00: Balanced after 2 trials
   
    14:30:00: Balanced after 2 trials
   
    14:35:00: Balanced after 2 trials
   
    14:40:00: Balanced after 2 trials
   
    14:45:00: Balanced after 2 trials
   
    14:50:00: Balanced after 2 trials
   
    14:55:00: Balanced after 2 trials
   
    15:00:00: Pump 10 changed by timer control
    15:00:00: Balanced after 5 trials
    15:00:00: Reservoir Lake is closed
    15:00:00: Tank 1 is emptying at 21.84 ft
    15:00:00: Pump 10 changed from open to closed
   
    15:05:00: Balanced after 2 trials
   
    15:10:00: Balanced after 2 trials
   
    15:15:00: Balanced after 2 trials
   
    15:20:00: Balanced after 2 trials
   
    15:25:00: Balanced after 2 trials
   
    15:30:00: Balanced after 2 trials
   
    15:35:00: Balanced after 2 trials
   
    15:40:00: Balanced after 2 trials
   
    15:45:00: Balanced after 2 trials
   
    15:50:00: Balanced after 2 trials
   
    15:55:00: Balanced after 2 trials
   
    16:00:00: Balanced after 4 trials
    16:00:00: Tank 2 is emptying at 28.19 ft
   
    16:05:00: Balanced after 1 trials
   
    16:10:00: Balanced after 1 trials
   
    16:15:00: Balanced after 1 trials
   
    16:20:00: Balanced after 1 trials
   
    16:25:00: Balanced after 1 trials
   
    16:30:00: Balanced after 1 trials
   
    16:35:00: Balanced after 1 trials
   
    16:40:00: Balanced after 1 trials
   
    16:45:00: Balanced after 1 trials
   
    16:50:00: Balanced after 1 trials
   
    16:55:00: Balanced after 1 trials
   
    17:00:00: Balanced after 3 trials
   
    17:05:00: Balanced after 2 trials
   
    17:10:00: Balanced after 2 trials
   
    17:15:00: Balanced after 2 trials
   
    17:20:00: Balanced after 2 trials
   
    17:25:00: Balanced after 2 trials
   
    17:30:00: Balanced after 1 trials
   
    17:35:00: Balanced after 1 trials
   
    17:40:00: Balanced after 1 trials
   
    17:45:00: Balanced after 1 trials
   
    17:50:00: Balanced after 1 trials
   
    17:55:00: Balanced after 1 trials
   
    18:00:00: Balanced after 3 trials
    18:00:00: Tank 2 is filling at 26.42 ft
   
    18:05:00: Balanced after 1 trials
   
    18:10:00: Balanced after 1 trials
    18:10:00: Tank 2 is emptying at 26.42 ft
   
    18:15:00: Balanced after 1 trials
   
    18:20:00: Balanced after 1 trials
   
    18:25:00: Balanced after 1 trials
   
    18:30:00: Balanced after 1 trials
   
    18:35:00: Balanced after 1 trials
   
    18:40:00: Balanced after 1 trials
   
    18:45:00: Balanced after 1 trials
   
    18:50:00: Balanced after 1 trials
   
    18:55:00: Balanced after 1 trials
   
    19:00:00: Balanced after 3 trials
    19:00:00: Tank 2 is filling at 26.35 ft
   
    19:05:00: Balanced after 2 trials
   
    19:10:00: Balanced after 2 trials
   
    19:15:00: Balanced after 2 trials
   
    19:20:00: Balanced after 2 trials
   
    19:25:00: Balanced after 2 trials
   
    19:30:00: Balanced after 2 trials
   
    19:35:00: Balanced after 2 trials
   
    19:40:00: Balanced after 2 trials
   
    19:45:00: Balanced after 2 trials
   
    19:50:00: Balanced after 2 trials
   
    19:55:00: Balanced after 1 trials
   
    20:00:00: Balanced after 3 trials
    20:00:00: Tank 2 is emptying at 26.46 ft
   
    20:05:00: Balanced after 2 trials
   
    20:10:00: Balanced after 2 trials
   
    20:15:00: Balanced after 2 trials
   
    20:20:00: Balanced after 2 trials
   
    20:25:00: Balanced after 2 trials
   
    20:30:00: Balanced after 2 trials
   
    20:34:41: Pump 335 changed by Tank 1 control
    20:34:41: Pipe 330 changed by Tank 1 control
    20:34:41: Balanced after 5 trials
    20:34:41: Tank 1 is filling at 17.10 ft
    20:34:41: Tank 3 is filling at 29.87 ft
    20:34:41: Pipe 330 changed from open to closed
    20:34:41: Pump 335 changed from closed to open
   
    20:35:00: Balanced after 1 trials
   
    20:40:00: Balanced after 2 trials
   
    20:45:00: Balanced after 2 trials
   
    20:50:00: Balanced after 2 trials
   
    20:55:00: Balanced after 2 trials
   
    21:00:00: Balanced after 3 trials
    21:00:00: Tank 2 is filling at 25.36 ft
   
    21:05:00: Balanced after 1 trials
   
    21:10:00: Balanced after 1 trials
   
    21:15:00: Balanced after 1 trials
   
    21:20:00: Balanced after 1 trials
   
    21:25:00: Balanced after 1 trials
   
    21:30:00: Balanced after 1 trials
   
    21:35:00: Balanced after 1 trials
   
    21:40:00: Balanced after 1 trials
   
    21:45:00: Balanced after 1 trials
   
    21:50:00: Balanced after 1 trials
   
    21:55:00: Balanced after 1 trials
   
    22:00:00: Balanced after 3 trials
    22:00:00: Tank 1 is emptying at 17.71 ft
    22:00:00: Tank 2 is emptying at 25.49 ft
   
    22:05:00: Balanced after 2 trials
   
    22:10:00: Balanced after 2 trials
   
    22:15:00: Balanced after 2 trials
   
    22:20:00: Balanced after 2 trials
   
    22:25:00: Balanced after 2 trials
   
    22:30:00: Balanced after 2 trials
   
    22:35:00: Balanced after 2 trials
   
    22:40:00: Balanced after 2 trials
    22:40:00: Tank 1 is filling at 17.67 ft
   
    22:45:00: Balanced after 2 trials
   
    22:50:00: Balanced after 2 trials
   
    22:55:00: Balanced after 2 trials
   
    23:00:00: Balanced after 4 trials
    23:00:00: Tank 1 is emptying at 17.67 ft
   
    23:05:00: Balanced after 2 trials
   
    23:10:00: Balanced after 2 trials
   
    23:15:00: Balanced after 2 trials
   
    23:20:00: Balanced after 2 trials
   
    23:25:00: Balanced after 2 trials
   
    23:30:00: Balanced after 2 trials
   
    23:35:00: Balanced after 2 trials
   
    23:40:00: Balanced after 2 trials
   
    23:45:00: Balanced after 2 trials
   
    23:50:00: Balanced after 2 trials
   
    23:55:00: Balanced after 2 trials
   
    24:00:00: Balanced after 4 trials
    24:00:00: Tank 1 is filling at 16.38 ft
   
   
  Node Results at 0:00:00 hrs:
  --------------------------------------------------------
                     Demand      Head  Pressure  Chemical
  Node                  gpm        ft       psi      mg/L
  --------------------------------------------------------
  10                   0.00    145.88     -0.48      0.00
  15                 630.32    124.98     40.29      0.00
  20                   0.00    158.00     12.57      0.00
  35                1464.96    146.21     57.94      0.00
  40                   0.00    145.00      5.68      0.00
  50                   0.00    140.00     10.18      0.00
  60                   0.00    209.02     90.57      0.00
  601                  0.00    302.51    131.08      0.00
  61                   0.00    302.51    131.08      0.00
  101                256.43    145.88     45.01      0.00
  103                179.82    145.85     44.57      0.00
  105                182.75    147.18     51.42      0.00
  107                 73.76    147.17     54.24      0.00
  109                312.39    145.85     54.40      0.00
  111                191.62    146.50     59.14      0.00
  113                 27.01    146.55     62.63      0.00
  115                 70.33    147.28     57.75      0.00
  117                158.91    150.34     59.25      0.00
  119                237.78    157.77     67.50      0.00
  120                  0.00    155.37     67.32      0.00
  121                 56.20    161.18     70.71      0.00
  123                  0.00    165.63     67.00      0.00
  125                 61.56    160.57     64.81      0.00
  127                 23.84    158.79     44.54      0.00
  129                  0.00    158.77     46.70      0.00
  131                 57.71    158.75     66.19      0.00
  139                  7.95    153.03     52.88      0.00
  141                 13.30    148.95     62.81      0.00
  143                  8.37    137.80     61.66      0.00
  145                 37.30    150.22     64.66      0.00
  147                 11.54    151.18     57.49      0.00
  149                 36.54    151.59     58.75      0.00
  151                195.05    155.58     52.90      0.00
  153                 59.63    155.67     38.77      0.00
  157                 69.92    155.39     61.65      0.00
  159                 55.78    152.10     63.30      0.00
  161                 21.33    149.87     63.20      0.00
  163                 12.72    149.42     62.58      0.00
  164                  0.00    149.42     62.58      0.00
  166                  3.51    149.42     65.61      0.00
  167                 19.66    147.59     66.12      0.00
  169                  0.00    147.59     66.12      0.00
  171                 53.11    146.53     65.23      0.00
  173                  0.00    146.51     65.22      0.00
  177                 78.53    146.19     59.88      0.00
  179                  0.00    146.16     59.87      0.00
  181                  0.00    146.22     59.89      0.00
  183                  0.00    146.17     58.57      0.00
  184                  0.00    144.96     55.88      0.00
  185                 34.63    145.53     56.13      0.00
  187                  0.00    146.20     57.93      0.00
  189                145.69    146.51     61.75      0.00
  191                110.56    146.45     52.62      0.00
  193                 96.27    146.55     55.70      0.00
  195                  0.00    146.62     56.81      0.00
  197                 23.00    146.46     53.49      0.00
  199                161.08    141.43     62.15      0.00
  201                 60.22    140.72     60.93      0.00
  203               4304.39    140.57     60.04      0.00
  204                  0.00    145.97     54.15      0.00
  205                 88.24    141.40     52.17      0.00
  206                  0.00    140.43     60.41      0.00
  207                 93.68    140.69     57.06      0.00
  208                  0.00    140.14     53.79      0.00
  209                  1.17    139.64     61.37      0.00
  211                 11.70    139.47     57.40      0.00
  213                 18.82    139.40     57.37      0.00
  215                124.46    139.20     57.28      0.00
  217                 32.70    139.18     57.71      0.00
  219                 55.78    139.17     58.57      0.00
  225                 30.78    139.17     56.84      0.00
  229                 86.64    139.27     55.79      0.00
  231                 22.25    139.26     58.18      0.00
  237                 21.07    139.35     54.32      0.00
  239                 60.22    139.35     54.75      0.00
  241                  0.00    139.35     54.75      0.00
  243                  5.86    139.35     54.31      0.00
  247                 95.01    139.35     52.58      0.00
  249                  0.00    139.35     52.58      0.00
  251                 32.62    139.35     47.38      0.00
  253                 73.60    139.40     44.80      0.00
  255                 54.53    139.46     48.73      0.00
  257                  0.00    152.28     58.62      0.00
  259                  0.00    151.85     54.97      0.00
  261                  0.00    150.29     65.12      0.00
  263                  0.00    150.13     65.05      0.00
  265                  0.00    148.17     64.20      0.00
  267                  0.00    146.58     54.41      0.00
  269                  0.00    146.92     63.66      0.00
  271                  0.00    146.31     60.79      0.00
  273                  0.00    141.40     57.80      0.00
  275                  0.00    140.72     56.64      0.00
  River           -13152.30    220.00      0.00      0.00  Reservoir
  Lake                 0.00    167.00      0.00      0.00  Reservoir
  1                  597.69    145.00      5.68      0.00  Tank
  2                 -280.71    140.00     10.18      0.00  Tank
  3                 2320.70    158.00     12.57      0.00  Tank
   
   
  Link Results at 0:00:00 hrs:
  ----------------------------------------------
                       Flow  Velocity  Headloss
  Link                  gpm       fps   /1000ft
  ----------------------------------------------
  20               -2320.70      0.10      0.00
  40                -597.69      0.02      0.00
  50                 280.71      0.01      0.00
  60               13152.30      9.33      8.92
  101                  0.00      0.00      0.00
  103                163.98      0.26      0.02
  105               -420.41      1.19      0.51
  107                 29.14      0.08      0.00
  109                -15.84      0.03      0.00
  111               -328.23      0.93      0.32
  112                490.16      1.39      0.68
  113                -90.72      0.26      0.03
  114                121.35      0.77      0.37
  115                -44.62      0.28      0.06
  116                  3.61      0.01      0.00
  117                632.30      1.79      1.08
  119               -726.46      2.06      1.40
  120               1152.06      3.27      3.29
  121               1032.62      2.93      2.69
  122                365.62      2.33      2.83
  123               9740.15      4.42      1.70
  125              13152.30      5.97      2.97
  129               2990.33      2.12      0.66
  131               2712.37      1.92      0.55
  133              -2320.70      2.37      1.00
  135                367.82      0.26      0.01
  137                 57.71      0.09      0.00
  145                310.11      1.98      2.09
  147                302.16      1.93      1.99
  149               -638.69      4.08      7.96
  151               -630.32      4.02      7.77
  153                349.83      0.99      0.36
  155                387.13      1.10      0.44
  159               -398.67      1.13      0.46
  161               -435.22      2.78      3.91
  163               -156.77      0.44      0.08
  169                216.40      1.38      1.07
  171                473.49      1.34      0.63
  173               7876.82      3.58      1.15
  175               7806.91      3.54      1.13
  177               7751.13      3.52      1.12
  179               7478.76      3.39      1.04
  180                  3.51      0.01      0.00
  181                  3.51      0.01      0.00
  183               7253.35      3.29      0.99
  185                -19.66      0.13      0.01
  186                332.19      2.12      2.37
  187               6619.44      3.00      0.83
  189               4622.11      2.10      0.43
  191              -1944.22      1.38      0.30
  193              -1464.96      1.04      0.18
  195                619.38      1.76      1.04
  197                540.85      1.53      0.81
  199                -56.84      0.16      0.01
  201               -597.69      1.70      0.98
  202                532.00      3.40      5.68
  203                234.45      1.50      1.24
  204                532.00      1.51      0.79
  205                332.19      0.94      0.33
  207                291.29      0.83      0.26
  209                160.90      1.03      0.62
  211                614.26      1.74      1.03
  213                171.29      0.49      0.10
  215                123.74      0.35      0.05
  217               -243.82      0.69      0.19
  219               -251.04      0.71      0.20
  221                251.04      1.60      1.41
  223                 38.03      0.11      0.01
  225                 61.03      0.17      0.01
  229               4622.11      3.28      1.27
  231               4339.66      3.08      1.13
  233               4304.39      3.05      1.29
  235                121.36      0.34      0.05
  237                455.97      1.29      0.59
  238                446.50      1.27      0.57
  239                 84.21      0.24      0.03
  240                446.50      1.27      0.57
  241                446.50      1.27      0.57
  243                445.33      0.71      0.14
  245                307.94      0.49      0.07
  247                243.72      0.39      0.05
  249                119.26      0.19      0.01
  251                 55.78      0.12      0.01
  257                 30.78      0.09      0.00
  261                 45.40      0.29      0.06
  263                 22.25      0.06      0.00
  269                125.69      0.36      0.05
  271                 63.49      0.41      0.11
  273                 41.13      0.12      0.01
  275                 -3.60      0.01      0.00
  277                  5.86      0.02      0.00
  281                 -9.46      0.04      0.00
  283                -15.50      0.04      0.00
  285                -10.15      0.03      0.00
  287                -94.32      0.39      0.08
  289                280.71      1.15      0.59
  291                 73.60      0.30      0.05
  293                 58.26      0.37      0.09
  295                -25.65      0.07      0.00
  297                485.06      3.10      4.78
  299                233.04      1.49      1.23
  301                233.04      1.49      1.23
  303                252.02      1.61      1.42
  305                147.24      0.42      0.07
  307                399.26      1.13      0.46
  309                209.18      1.34      1.01
  311                -85.44      0.24      0.03
  313                474.15      1.35      0.64
  315              -2084.33      1.48      0.34
  317                109.16      0.70      0.30
  319                 12.20      0.03      0.00
  321               7462.53      3.39      1.04
  323                -24.95      0.07      0.00
  325                140.11      0.89      0.48
  329              13152.30      5.97      3.01
  330                  0.00      0.00      0.00
  333                 -0.00      0.00      0.00
  10                   0.00      0.00      0.00  Pump
  335              13152.30      0.00    -93.49  Pump
   
   
  Node Results at 0:05:00 hrs:
  --------------------------------------------------------
                     Demand      Head  Pressure  Chemical
  Node                  gpm        ft       psi      mg/L
  --------------------------------------------------------
  10                   0.00    145.93     -0.46      0.00
  15                 630.32    125.04     40.32      0.00
  20                   0.00    158.07     12.60      0.00
  35                1464.96    146.26     57.96      0.00
  40                   0.00    145.07      5.71      0.00
  50                   0.00    139.90     10.14      0.00
  60                   0.00    209.02     90.57      0.00
  601                  0.00    302.53    131.09      0.00
  61                   0.00    302.53    131.09      0.00
  101                256.43    145.93     45.03      0.00
  103                179.82    145.90     44.59      0.00
  105                182.75    147.23     51.44      0.00
  107                 73.76    147.22     54.26      0.00
  109                312.39    145.90     54.42      0.00
  111                191.62    146.55     59.17      0.00
  113                 27.01    146.60     62.65      0.00
  115                 70.33    147.33     57.77      0.00
  117                158.91    150.39     59.27      0.00
  119                237.78    157.83     67.52      0.00
  120                  0.00    155.43     67.35      0.00
  121                 56.20    161.24     70.73      0.00
  123                  0.00    165.69     67.03      0.00
  125                 61.56    160.63     64.83      0.00
  127                 23.84    158.86     44.57      0.00
  129                  0.00    158.84     46.73      0.00
  131                 57.71    158.82     66.22      0.00
  139                  7.95    153.09     52.90      0.00
  141                 13.30    149.01     62.83      0.00
  143                  8.37    137.86     61.69      0.00
  145                 37.30    150.28     64.68      0.00
  147                 11.54    151.24     57.52      0.00
  149                 36.54    151.65     58.78      0.00
  151                195.05    155.64     52.92      0.00
  153                 59.63    155.73     38.79      0.00
  157                 69.92    155.44     61.68      0.00
  159                 55.78    152.15     63.33      0.00
  161                 21.33    149.92     63.23      0.00
  163                 12.72    149.47     62.60      0.00
  164                  0.00    149.47     62.60      0.00
  166                  3.51    149.47     65.63      0.00
  167                 19.66    147.64     66.14      0.00
  169                  0.00    147.64     66.14      0.00
  171                 53.11    146.58     65.25      0.00
  173                  0.00    146.56     65.24      0.00
  177                 78.53    146.24     59.90      0.00
  179                  0.00    146.21     59.89      0.00
  181                  0.00    146.27     59.91      0.00
  183                  0.00    146.21     58.59      0.00
  184                  0.00    145.01     55.90      0.00
  185                 34.63    145.58     56.15      0.00
  187                  0.00    146.25     57.95      0.00
  189                145.69    146.56     61.77      0.00
  191                110.56    146.50     52.65      0.00
  193                 96.27    146.60     55.72      0.00
  195                  0.00    146.67     56.83      0.00
  197                 23.00    146.51     53.52      0.00
  199                161.08    141.46     62.16      0.00
  201                 60.22    140.75     60.94      0.00
  203               4304.39    140.59     60.05      0.00
  204                  0.00    146.01     54.17      0.00
  205                 88.24    141.42     52.18      0.00
  206                  0.00    140.44     60.42      0.00
  207                 93.68    140.71     57.07      0.00
  208                  0.00    140.14     53.79      0.00
  209                  1.17    139.61     61.36      0.00
  211                 11.70    139.44     57.38      0.00
  213                 18.82    139.36     57.35      0.00
  215                124.46    139.17     57.27      0.00
  217                 32.70    139.15     57.69      0.00
  219                 55.78    139.14     58.55      0.00
  225                 30.78    139.14     56.82      0.00
  229                 86.64    139.22     55.78      0.00
  231                 22.25    139.22     58.16      0.00
  237                 21.07    139.31     54.30      0.00
  239                 60.22    139.30     54.73      0.00
  241                  0.00    139.30     54.73      0.00
  243                  5.86    139.30     54.29      0.00
  247                 95.01    139.30     52.56      0.00
  249                  0.00    139.30     52.56      0.00
  251                 32.62    139.31     47.36      0.00
  253                 73.60    139.34     44.78      0.00
  255                 54.53    139.40     48.70      0.00
  257                  0.00    152.34     58.64      0.00
  259                  0.00    151.91     54.99      0.00
  261                  0.00    150.35     65.14      0.00
  263                  0.00    150.18     65.07      0.00
  265                  0.00    148.22     64.22      0.00
  267                  0.00    146.63     54.43      0.00
  269                  0.00    146.97     63.68      0.00
  271                  0.00    146.35     60.82      0.00
  273                  0.00    141.42     57.81      0.00
  275                  0.00    140.75     56.65      0.00
  River           -13150.32    220.00      0.00      0.00  Reservoir
  Lake                 0.00    167.00      0.00      0.00  Reservoir
  1                  591.86    145.07      5.71      0.00  Tank
  2                 -270.67    139.90     10.14      0.00  Tank
  3                 2314.51    158.07     12.60      0.00  Tank
   
   
  Link Results at 0:05:00 hrs:
  ----------------------------------------------
                       Flow  Velocity  Headloss
  Link                  gpm       fps   /1000ft
  ----------------------------------------------
  20               -2314.51      0.10      0.00
  40                -591.86      0.02      0.00
  50                 270.67      0.01      0.00
  60               13150.32      9.33      8.92
  101                  0.00      0.00      0.00
  103                164.11      0.26      0.02
  105               -420.54      1.19      0.51
  107                 29.23      0.08      0.00
  109                -15.71      0.03      0.00
  111               -328.10      0.93      0.32
  112                490.45      1.39      0.68
  113                -90.52      0.26      0.03
  114                121.44      0.78      0.37
  115                -44.54      0.28      0.06
  116                  3.91      0.01      0.00
  117                632.52      1.79      1.09
  119               -726.77      2.06      1.40
  120               1152.44      3.27      3.30
  121               1032.97      2.93      2.69
  122                365.75      2.33      2.84
  123               9744.04      4.42      1.70
  125              13150.32      5.97      2.97
  129               2984.33      2.12      0.66
  131               2706.29      1.92      0.55
  133              -2314.51      2.36      1.00
  135                367.94      0.26      0.01
  137                 57.71      0.09      0.00
  145                310.23      1.98      2.09
  147                302.28      1.93      1.99
  149               -638.69      4.08      7.96
  151               -630.32      4.02      7.77
  153                349.71      0.99      0.36
  155                387.01      1.10      0.44
  159               -398.55      1.13      0.46
  161               -435.10      2.78      3.91
  163               -156.85      0.44      0.08
  169                216.48      1.38      1.07
  171                473.30      1.34      0.63
  173               7880.53      3.58      1.15
  175               7810.61      3.55      1.13
  177               7754.83      3.52      1.12
  179               7482.41      3.40      1.04
  180                  3.51      0.01      0.00
  181                  3.51      0.01      0.00
  183               7257.03      3.29      0.99
  185                -19.66      0.13      0.01
  186                332.76      2.12      2.38
  187               6623.26      3.01      0.83
  189               4630.91      2.10      0.43
  191              -1939.25      1.38      0.30
  193              -1464.96      1.04      0.18
  195                614.44      1.74      1.03
  197                535.92      1.52      0.80
  199                -55.95      0.16      0.01
  201               -591.86      1.68      0.96
  202                533.25      3.40      5.70
  203                235.12      1.50      1.25
  204                533.25      1.51      0.79
  205                332.76      0.94      0.33
  207                291.07      0.83      0.26
  209                161.11      1.03      0.62
  211                614.11      1.74      1.03
  213                171.65      0.49      0.10
  215                123.92      0.35      0.05
  217               -243.96      0.69      0.19
  219               -251.08      0.71      0.20
  221                251.08      1.60      1.41
  223                 38.25      0.11      0.01
  225                 61.25      0.17      0.01
  229               4630.91      3.28      1.27
  231               4346.87      3.08      1.13
  233               4304.39      3.05      1.29
  235                122.96      0.35      0.05
  237                458.66      1.30      0.60
  238                456.55      1.30      0.59
  239                 91.56      0.26      0.03
  240                456.55      1.30      0.59
  241                456.55      1.30      0.59
  243                455.37      0.73      0.15
  245                309.65      0.49      0.07
  247                243.72      0.39      0.05
  249                119.26      0.19      0.01
  251                 55.78      0.12      0.01
  257                 30.78      0.09      0.00
  261                 47.11      0.30      0.06
  263                 22.25      0.06      0.00
  269                134.02      0.38      0.06
  271                 61.78      0.39      0.11
  273                 51.17      0.15      0.01
  275                  0.30      0.00      0.00
  277                  5.86      0.02      0.00
  281                 -5.56      0.02      0.00
  283                 -9.35      0.03      0.00
  285                -12.57      0.04      0.00
  287                -88.01      0.36      0.07
  289                270.67      1.11      0.55
  291                 73.60      0.30      0.05
  293                 54.54      0.35      0.08
  295                -21.92      0.06      0.00
  297                485.23      3.10      4.79
  299                233.12      1.49      1.23
  301                233.12      1.49      1.23
  303                252.10      1.61      1.42
  305                147.29      0.42      0.07
  307                399.39      1.13      0.46
  309                209.16      1.34      1.01
  311                -85.24      0.24      0.03
  313                473.95      1.34      0.64
  315              -2079.40      1.47      0.34
  317                109.31      0.70      0.30
  319                 13.65      0.04      0.00
  321               7466.19      3.39      1.04
  323                -17.74      0.05      0.00
  325                140.16      0.89      0.48
  329              13150.32      5.97      3.01
  330                  0.00      0.00      0.00
  333                 -0.00      0.00      0.00
  10                   0.00      0.00      0.00  Pump
  335              13150.32      0.00    -93.51  Pump
   
   
  Node Results at 0:10:00 hrs:
  --------------------------------------------------------
                     Demand      Head  Pressure  Chemical
  Node                  gpm        ft       psi      mg/L
  --------------------------------------------------------
  10                   0.00    145.98     -0.44      0.00
  15                 630.32    125.10     40.34      0.00
  20                   0.00    158.15     12.63      0.00
  35                1464.96    146.31     57.98      0.00
  40                   0.00    145.14      5.74      0.00
  50                   0.00    139.81     10.10      0.00
  60                   0.00    209.03     90.57      0.00
  601                  0.00    302.55    131.10      0.00
  61                   0.00    302.55    131.10      0.00
  101                256.43    145.98     45.06      0.00
  103                179.82    145.95     44.61      0.00
  105                182.75    147.28     51.47      0.00
  107                 73.76    147.27     54.28      0.00
  109                312.39    145.95     54.45      0.00
  111                191.62    146.60     59.19      0.00
  113                 27.01    146.65     62.68      0.00
  115                 70.33    147.38     57.80      0.00
  117                158.91    150.45     59.30      0.00
  119                237.78    157.89     67.55      0.00
  120                  0.00    155.48     67.37      0.00
  121                 56.20    161.30     70.76      0.00
  123                  0.00    165.75     67.05      0.00
  125                 61.56    160.69     64.86      0.00
  127                 23.84    158.92     44.60      0.00
  129                  0.00    158.91     46.76      0.00
  131                 57.71    158.89     66.25      0.00
  139                  7.95    153.16     52.93      0.00
  141                 13.30    149.07     62.86      0.00
  143                  8.37    137.93     61.71      0.00
  145                 37.30    150.34     64.71      0.00
  147                 11.54    151.30     57.54      0.00
  149                 36.54    151.71     58.80      0.00
  151                195.05    155.70     52.95      0.00
  153                 59.63    155.79     38.82      0.00
  157                 69.92    155.50     61.70      0.00
  159                 55.78    152.20     63.35      0.00
  161                 21.33    149.97     63.25      0.00
  163                 12.72    149.52     62.62      0.00
  164                  0.00    149.52     62.62      0.00
  166                  3.51    149.52     65.65      0.00
  167                 19.66    147.68     66.16      0.00
  169                  0.00    147.69     66.16      0.00
  171                 53.11    146.63     65.27      0.00
  173                  0.00    146.60     65.26      0.00
  177                 78.53    146.29     59.92      0.00
  179                  0.00    146.26     59.91      0.00
  181                  0.00    146.32     59.93      0.00
  183                  0.00    146.26     58.61      0.00
  184                  0.00    145.05     55.92      0.00
  185                 34.63    145.62     56.17      0.00
  187                  0.00    146.30     57.98      0.00
  189                145.69    146.61     61.79      0.00
  191                110.56    146.55     52.67      0.00
  193                 96.27    146.65     55.74      0.00
  195                  0.00    146.72     56.86      0.00
  197                 23.00    146.56     53.54      0.00
  199                161.08    141.49     62.18      0.00
  201                 60.22    140.78     60.96      0.00
  203               4304.39    140.62     60.06      0.00
  204                  0.00    146.06     54.19      0.00
  205                 88.24    141.45     52.19      0.00
  206                  0.00    140.45     60.42      0.00
  207                 93.68    140.73     57.08      0.00
  208                  0.00    140.13     53.79      0.00
  209                  1.17    139.59     61.35      0.00
  211                 11.70    139.41     57.37      0.00
  213                 18.82    139.33     57.34      0.00
  215                124.46    139.14     57.26      0.00
  217                 32.70    139.12     57.68      0.00
  219                 55.78    139.11     58.54      0.00
  225                 30.78    139.11     56.81      0.00
  229                 86.64    139.18     55.76      0.00
  231                 22.25    139.18     58.14      0.00
  237                 21.07    139.26     54.28      0.00
  239                 60.22    139.26     54.71      0.00
  241                  0.00    139.26     54.71      0.00
  243                  5.86    139.26     54.27      0.00
  247                 95.01    139.26     52.54      0.00
  249                  0.00    139.26     52.54      0.00
  251                 32.62    139.26     47.34      0.00
  253                 73.60    139.29     44.75      0.00
  255                 54.53    139.34     48.68      0.00
  257                  0.00    152.39     58.67      0.00
  259                  0.00    151.96     55.01      0.00
  261                  0.00    150.40     65.17      0.00
  263                  0.00    150.24     65.10      0.00
  265                  0.00    148.27     64.24      0.00
  267                  0.00    146.68     54.46      0.00
  269                  0.00    147.02     63.70      0.00
  271                  0.00    146.40     60.84      0.00
  273                  0.00    141.45     57.83      0.00
  275                  0.00    140.78     56.67      0.00
  River           -13148.34    220.00      0.00      0.00  Reservoir
  Lake                 0.00    167.00      0.00      0.00  Reservoir
  1                  586.22    145.14      5.74      0.00  Tank
  2                 -260.87    139.81     10.10      0.00  Tank
  3                 2308.38    158.15     12.63      0.00  Tank
   
   
  Link Results at 0:10:00 hrs:
  ----------------------------------------------
                       Flow  Velocity  Headloss
  Link                  gpm       fps   /1000ft
  ----------------------------------------------
  20               -2308.38      0.10      0.00
  40                -586.22      0.02      0.00
  50                 260.87      0.01      0.00
  60               13148.34      9.32      8.92
  101                  0.00      0.00      0.00
  103                164.24      0.26      0.02
  105               -420.67      1.19      0.51
  107                 29.31      0.08      0.00
  109                -15.58      0.02      0.00
  111               -327.97      0.93      0.32
  112                490.74      1.39      0.68
  113                -90.32      0.26      0.03
  114                121.54      0.78      0.37
  115                -44.46      0.28      0.06
  116                  4.21      0.01      0.00
  117                632.72      1.79      1.09
  119               -727.07      2.06      1.40
  120               1152.81      3.27      3.30
  121               1033.31      2.93      2.69
  122                365.89      2.34      2.84
  123               9747.87      4.42      1.70
  125              13148.34      5.97      2.97
  129               2978.38      2.11      0.65
  131               2700.28      1.92      0.55
  133              -2308.38      2.36      0.99
  135                368.06      0.26      0.01
  137                 57.71      0.09      0.00
  145                310.34      1.98      2.09
  147                302.39      1.93      1.99
  149               -638.69      4.08      7.96
  151               -630.32      4.02      7.77
  153                349.59      0.99      0.36
  155                386.90      1.10      0.44
  159               -398.44      1.13      0.46
  161               -434.98      2.78      3.91
  163               -156.92      0.45      0.08
  169                216.55      1.38      1.07
  171                473.11      1.34      0.63
  173               7884.17      3.58      1.15
  175               7814.25      3.55      1.13
  177               7758.47      3.52      1.12
  179               7486.01      3.40      1.05
  180                  3.51      0.01      0.00
  181                  3.51      0.01      0.00
  183               7260.64      3.30      0.99
  185                -19.66      0.13      0.01
  186                333.31      2.13      2.39
  187               6627.02      3.01      0.83
  189               4639.49      2.11      0.43
  191              -1934.42      1.37      0.29
  193              -1464.96      1.04      0.18
  195                609.66      1.73      1.01
  197                531.13      1.51      0.79
  199                -55.09      0.16      0.01
  201               -586.22      1.66      0.94
  202                534.46      3.41      5.72
  203                235.77      1.50      1.26
  204                534.46      1.52      0.79
  205                333.31      0.95      0.33
  207                290.86      0.83      0.26
  209                161.31      1.03      0.62
  211                613.96      1.74      1.03
  213                172.00      0.49      0.10
  215                124.11      0.35      0.05
  217               -244.10      0.69      0.19
  219               -251.13      0.71      0.20
  221                251.13      1.60      1.41
  223                 38.46      0.11      0.01
  225                 61.46      0.17      0.01
  229               4639.49      3.29      1.28
  231               4353.86      3.09      1.14
  233               4304.39      3.05      1.29
  235                124.55      0.35      0.05
  237                461.34      1.31      0.60
  238                466.34      1.32      0.62
  239                 98.68      0.28      0.03
  240                466.34      1.32      0.62
  241                466.34      1.32      0.62
  243                465.17      0.74      0.15
  245                311.37      0.50      0.07
  247                243.72      0.39      0.05
  249                119.26      0.19      0.01
  251                 55.78      0.12      0.01
  257                 30.78      0.09      0.00
  261                 48.83      0.31      0.07
  263                 22.25      0.06      0.00
  269                142.10      0.40      0.07
  271                 60.06      0.38      0.10
  273                 60.97      0.17      0.01
  275                  4.11      0.01      0.00
  277                  5.86      0.02      0.00
  281                 -1.75      0.01      0.00
  283                 -3.36      0.01      0.00
  285                -14.91      0.04      0.00
  287                -81.85      0.33      0.06
  289                260.87      1.07      0.51
  291                 73.60      0.30      0.05
  293                 50.89      0.32      0.07
  295                -18.28      0.05      0.00
  297                485.39      3.10      4.79
  299                233.20      1.49      1.23
  301                233.20      1.49      1.23
  303                252.19      1.61      1.42
  305                147.34      0.42      0.07
  307                399.52      1.13      0.46
  309                209.14      1.33      1.01
  311                -85.04      0.24      0.03
  313                473.76      1.34      0.64
  315              -2074.62      1.47      0.33
  317                109.44      0.70      0.30
  319                 15.12      0.04      0.00
  321               7469.78      3.39      1.04
  323                -10.76      0.03      0.00
  325                140.20      0.89      0.48
  329              13148.34      5.97      3.01
  330                  0.00      0.00      0.00
  333                 -0.00      0.00      0.00
  10                   0.00      0.00      0.00  Pump
  335              13148.34      0.00    -93.53  Pump
   
   
  Node Results at 0:15:00 hrs:
  --------------------------------------------------------
                     Demand      Head  Pressure  Chemical
  Node                  gpm        ft       psi      mg/L
  --------------------------------------------------------
  10                   0.00    146.03     -0.42      0.00
  15                 630.32    125.17     40.37      0.00
  20                   0.00    158.22     12.66      0.00
  35                1464.96    146.36     58.00      0.00
  40                   0.00    145.21      5.77      0.00
  50                   0.00    139.72     10.06      0.00
  60                   0.00    209.03     90.57      0.00
  601                  0.00    302.57    131.10      0.00
  61                   0.00    302.57    131.10      0.00
  101                256.43    146.03     45.08      0.00
  103                179.82    146.00     44.63      0.00
  105                182.75    147.33     51.49      0.00
  107                 73.76    147.32     54.30      0.00
  109                312.39    146.00     54.47      0.00
  111                191.62    146.65     59.21      0.00
  113                 27.01    146.70     62.70      0.00
  115                 70.33    147.43     57.82      0.00
  117                158.91    150.50     59.32      0.00
  119                237.78    157.95     67.57      0.00
  120                  0.00    155.54     67.39      0.00
  121                 56.20    161.36     70.78      0.00
  123                  0.00    165.81     67.08      0.00
  125                 61.56    160.75     64.89      0.00
  127                 23.84    158.99     44.63      0.00
  129                  0.00    158.98     46.79      0.00
  131                 57.71    158.96     66.28      0.00
  139                  7.95    153.23     52.96      0.00
  141                 13.30    149.14     62.89      0.00
  143                  8.37    137.99     61.74      0.00
  145                 37.30    150.40     64.74      0.00
  147                 11.54    151.36     57.57      0.00
  149                 36.54    151.77     58.83      0.00
  151                195.05    155.76     52.97      0.00
  153                 59.63    155.85     38.85      0.00
  157                 69.92    155.55     61.72      0.00
  159                 55.78    152.25     63.37      0.00
  161                 21.33    150.02     63.27      0.00
  163                 12.72    149.57     62.64      0.00
  164                  0.00    149.57     62.64      0.00
  166                  3.51    149.57     65.67      0.00
  167                 19.66    147.73     66.18      0.00
  169                  0.00    147.73     66.18      0.00
  171                 53.11    146.67     65.29      0.00
  173                  0.00    146.65     65.28      0.00
  177                 78.53    146.33     59.94      0.00
  179                  0.00    146.31     59.93      0.00
  181                  0.00    146.36     59.95      0.00
  183                  0.00    146.31     58.63      0.00
  184                  0.00    145.10     55.94      0.00
  185                 34.63    145.67     56.19      0.00
  187                  0.00    146.35     58.00      0.00
  189                145.69    146.66     61.82      0.00
  191                110.56    146.60     52.69      0.00
  193                 96.27    146.70     55.76      0.00
  195                  0.00    146.77     56.88      0.00
  197                 23.00    146.61     53.56      0.00
  199                161.08    141.52     62.19      0.00
  201                 60.22    140.80     60.97      0.00
  203               4304.39    140.65     60.08      0.00
  204                  0.00    146.11     54.21      0.00
  205                 88.24    141.48     52.20      0.00
  206                  0.00    140.46     60.43      0.00
  207                 93.68    140.75     57.09      0.00
  208                  0.00    140.13     53.79      0.00
  209                  1.17    139.57     61.34      0.00
  211                 11.70    139.38     57.36      0.00
  213                 18.82    139.30     57.33      0.00
  215                124.46    139.11     57.24      0.00
  217                 32.70    139.09     57.67      0.00
  219                 55.78    139.08     58.53      0.00
  225                 30.78    139.08     56.80      0.00
  229                 86.64    139.14     55.74      0.00
  231                 22.25    139.14     58.12      0.00
  237                 21.07    139.22     54.26      0.00
  239                 60.22    139.21     54.69      0.00
  241                  0.00    139.21     54.69      0.00
  243                  5.86    139.21     54.25      0.00
  247                 95.01    139.21     52.52      0.00
  249                  0.00    139.21     52.52      0.00
  251                 32.62    139.21     47.32      0.00
  253                 73.60    139.23     44.73      0.00
  255                 54.53    139.28     48.65      0.00
  257                  0.00    152.45     58.69      0.00
  259                  0.00    152.02     55.04      0.00
  261                  0.00    150.45     65.19      0.00
  263                  0.00    150.29     65.12      0.00
  265                  0.00    148.32     64.27      0.00
  267                  0.00    146.73     54.48      0.00
  269                  0.00    147.07     63.73      0.00
  271                  0.00    146.45     60.86      0.00
  273                  0.00    141.48     57.84      0.00
  275                  0.00    140.80     56.68      0.00
  River           -13146.36    220.00      0.00      0.00  Reservoir
  Lake                 0.00    167.00      0.00      0.00  Reservoir
  1                  580.74    145.21      5.77      0.00  Tank
  2                 -251.31    139.72     10.06      0.00  Tank
  3                 2302.31    158.22     12.66      0.00  Tank
   
   
  Link Results at 0:15:00 hrs:
  ----------------------------------------------
                       Flow  Velocity  Headloss
  Link                  gpm       fps   /1000ft
  ----------------------------------------------
  20               -2302.31      0.10      0.00
  40                -580.74      0.02      0.00
  50                 251.31      0.01      0.00
  60               13146.36      9.32      8.91
  101                  0.00      0.00      0.00
  103                164.36      0.26      0.02
  105               -420.79      1.19      0.51
  107                 29.39      0.08      0.00
  109                -15.46      0.02      0.00
  111               -327.85      0.93      0.32
  112                491.02      1.39      0.68
  113                -90.12      0.26      0.03
  114                121.63      0.78      0.37
  115                -44.38      0.28      0.06
  116                  4.50      0.01      0.00
  117                632.93      1.80      1.09
  119               -727.36      2.06      1.41
  120               1153.18      3.27      3.30
  121               1033.65      2.93      2.69
  122                366.02      2.34      2.84
  123               9751.64      4.43      1.71
  125              13146.36      5.97      2.97
  129               2972.51      2.11      0.65
  131               2694.33      1.91      0.54
  133              -2302.31      2.35      0.99
  135                368.17      0.26      0.01
  137                 57.71      0.09      0.00
  145                310.46      1.98      2.09
  147                302.51      1.93      2.00
  149               -638.69      4.08      7.96
  151               -630.32      4.02      7.77
  153                349.48      0.99      0.36
  155                386.78      1.10      0.44
  159               -398.32      1.13      0.46
  161               -434.87      2.78      3.91
  163               -156.99      0.45      0.08
  169                216.62      1.38      1.07
  171                472.93      1.34      0.63
  173               7887.76      3.58      1.15
  175               7817.84      3.55      1.13
  177               7762.06      3.52      1.12
  179               7489.55      3.40      1.05
  180                  3.51      0.01      0.00
  181                  3.51      0.01      0.00
  183               7264.20      3.30      0.99
  185                -19.66      0.13      0.01
  186                333.86      2.13      2.39
  187               6630.72      3.01      0.84
  189               4647.87      2.11      0.43
  191              -1929.73      1.37      0.29
  193              -1464.96      1.04      0.18
  195                605.02      1.72      1.00
  197                526.49      1.49      0.77
  199                -54.25      0.15      0.01
  201               -580.74      1.65      0.93
  202                535.64      3.42      5.75
  203                236.41      1.51      1.26
  204                535.64      1.52      0.80
  205                333.86      0.95      0.33
  207                290.66      0.82      0.26
  209                161.51      1.03      0.62
  211                613.82      1.74      1.03
  213                172.35      0.49      0.10
  215                124.29      0.35      0.05
  217               -244.24      0.69      0.19
  219               -251.18      0.71      0.20
  221                251.18      1.60      1.41
  223                 38.67      0.11      0.01
  225                 61.67      0.17      0.01
  229               4647.87      3.30      1.28
  231               4360.64      3.09      1.14
  233               4304.39      3.05      1.29
  235                126.15      0.36      0.05
  237                464.00      1.32      0.61
  238                475.91      1.35      0.64
  239                105.58      0.30      0.04
  240                475.91      1.35      0.64
  241                475.91      1.35      0.64
  243                474.73      0.76      0.16
  245                313.09      0.50      0.07
  247                243.72      0.39      0.05
  249                119.26      0.19      0.01
  251                 55.78      0.12      0.01
  257                 30.78      0.09      0.00
  261                 50.56      0.32      0.07
  263                 22.25      0.06      0.00
  269                149.93      0.43      0.08
  271                 58.33      0.37      0.09
  273                 70.53      0.20      0.02
  275                  7.64      0.02      0.00
  277                  5.86      0.02      0.00
  281                  1.78      0.01      0.00
  283                  2.66      0.01      0.00
  285                -17.37      0.05      0.00
  287                -75.86      0.31      0.05
  289                251.31      1.03      0.48
  291                 73.60      0.30      0.05
  293                 47.32      0.30      0.06
  295                -14.71      0.04      0.00
  297                485.55      3.10      4.79
  299                233.28      1.49      1.23
  301                233.28      1.49      1.23
  303                252.27      1.61      1.43
  305                147.38      0.42      0.07
  307                399.65      1.13      0.46
  309                209.13      1.33      1.01
  311                -84.84      0.24      0.03
  313                473.58      1.34      0.63
  315              -2069.98      1.47      0.33
  317                109.55      0.70      0.30
  319                 16.60      0.05      0.00
  321               7473.32      3.39      1.04
  323                 -3.97      0.01      0.00
  325                140.25      0.90      0.48
  329              13146.36      5.97      3.01
  330                  0.00      0.00      0.00
  333                 -0.00      0.00      0.00
  10                   0.00      0.00      0.00  Pump
  335              13146.36      0.00    -93.54  Pump
   
   
  Node Results at 0:20:00 hrs:
  --------------------------------------------------------
                     Demand      Head  Pressure  Chemical
  Node                  gpm        ft       psi      mg/L
  --------------------------------------------------------
  10                   0.00    146.08     -0.40      0.00
  15                 630.32    125.23     40.40      0.00
  20                   0.00    158.29     12.69      0.00
  35                1464.96    146.41     58.02      0.00
  40                   0.00    145.28      5.80      0.00
  50                   0.00    139.64     10.03      0.00
  60                   0.00    209.03     90.57      0.00
  601                  0.00    302.59    131.11      0.00
  61                   0.00    302.59    131.11      0.00
  101                256.43    146.08     45.10      0.00
  103                179.82    146.05     44.65      0.00
  105                182.75    147.38     51.51      0.00
  107                 73.76    147.37     54.32      0.00
  109                312.39    146.05     54.49      0.00
  111                191.62    146.70     59.23      0.00
  113                 27.01    146.75     62.72      0.00
  115                 70.33    147.48     57.84      0.00
  117                158.91    150.55     59.34      0.00
  119                237.78    158.00     67.60      0.00
  120                  0.00    155.59     67.42      0.00
  121                 56.20    161.42     70.81      0.00
  123                  0.00    165.87     67.10      0.00
  125                 61.56    160.82     64.91      0.00
  127                 23.84    159.06     44.66      0.00
  129                  0.00    159.05     46.82      0.00
  131                 57.71    159.03     66.31      0.00
  139                  7.95    153.29     52.99      0.00
  141                 13.30    149.20     62.91      0.00
  143                  8.37    138.05     61.77      0.00
  145                 37.30    150.47     64.76      0.00
  147                 11.54    151.43     57.60      0.00
  149                 36.54    151.83     58.86      0.00
  151                195.05    155.81     53.00      0.00
  153                 59.63    155.91     38.87      0.00
  157                 69.92    155.61     61.75      0.00
  159                 55.78    152.31     63.39      0.00
  161                 21.33    150.07     63.29      0.00
  163                 12.72    149.62     62.66      0.00
  164                  0.00    149.62     62.66      0.00
  166                  3.51    149.62     65.70      0.00
  167                 19.66    147.78     66.20      0.00
  169                  0.00    147.78     66.20      0.00
  171                 53.11    146.72     65.31      0.00
  173                  0.00    146.70     65.30      0.00
  177                 78.53    146.38     59.96      0.00
  179                  0.00    146.36     59.95      0.00
  181                  0.00    146.41     59.97      0.00
  183                  0.00    146.36     58.65      0.00
  184                  0.00    145.14     55.96      0.00
  185                 34.63    145.72     56.21      0.00
  187                  0.00    146.40     58.02      0.00
  189                145.69    146.71     61.84      0.00
  191                110.56    146.65     52.71      0.00
  193                 96.27    146.75     55.79      0.00
  195                  0.00    146.82     56.90      0.00
  197                 23.00    146.66     53.58      0.00
  199                161.08    141.55     62.20      0.00
  201                 60.22    140.83     60.98      0.00
  203               4304.39    140.68     60.09      0.00
  204                  0.00    146.16     54.23      0.00
  205                 88.24    141.51     52.22      0.00
  206                  0.00    140.47     60.43      0.00
  207                 93.68    140.77     57.10      0.00
  208                  0.00    140.13     53.79      0.00
  209                  1.17    139.55     61.33      0.00
  211                 11.70    139.35     57.35      0.00
  213                 18.82    139.28     57.31      0.00
  215                124.46    139.08     57.23      0.00
  217                 32.70    139.06     57.65      0.00
  219                 55.78    139.05     58.52      0.00
  225                 30.78    139.05     56.79      0.00
  229                 86.64    139.11     55.72      0.00
  231                 22.25    139.10     58.11      0.00
  237                 21.07    139.18     54.24      0.00
  239                 60.22    139.16     54.67      0.00
  241                  0.00    139.16     54.67      0.00
  243                  5.86    139.16     54.23      0.00
  247                 95.01    139.16     52.50      0.00
  249                  0.00    139.16     52.50      0.00
  251                 32.62    139.16     47.30      0.00
  253                 73.60    139.17     44.70      0.00
  255                 54.53    139.23     48.63      0.00
  257                  0.00    152.50     58.71      0.00
  259                  0.00    152.07     55.06      0.00
  261                  0.00    150.50     65.21      0.00
  263                  0.00    150.34     65.14      0.00
  265                  0.00    148.37     64.29      0.00
  267                  0.00    146.78     54.50      0.00
  269                  0.00    147.12     63.75      0.00
  271                  0.00    146.50     60.88      0.00
  273                  0.00    141.51     57.85      0.00
  275                  0.00    140.83     56.69      0.00
  River           -13144.39    220.00      0.00      0.00  Reservoir
  Lake                 0.00    167.00      0.00      0.00  Reservoir
  1                  575.44    145.28      5.80      0.00  Tank
  2                 -241.99    139.64     10.03      0.00  Tank
  3                 2296.32    158.29     12.69      0.00  Tank
   
   
  Link Results at 0:20:00 hrs:
  ----------------------------------------------
                       Flow  Velocity  Headloss
  Link                  gpm       fps   /1000ft
  ----------------------------------------------
  20               -2296.32      0.10      0.00
  40                -575.44      0.02      0.00
  50                 241.99      0.01      0.00
  60               13144.39      9.32      8.91
  101                  0.00      0.00      0.00
  103                164.49      0.26      0.02
  105               -420.92      1.19      0.51
  107                 29.47      0.08      0.00
  109                -15.33      0.02      0.00
  111               -327.72      0.93      0.32
  112                491.30      1.39      0.68
  113                -89.92      0.26      0.03
  114                121.72      0.78      0.37
  115                -44.30      0.28      0.06
  116                  4.78      0.01      0.00
  117                633.13      1.80      1.09
  119               -727.65      2.06      1.41
  120               1153.55      3.27      3.30
  121               1033.99      2.93      2.70
  122                366.15      2.34      2.84
  123               9755.35      4.43      1.71
  125              13144.39      5.97      2.97
  129               2966.69      2.10      0.65
  131               2688.44      1.91      0.54
  133              -2296.32      2.35      0.98
  135                368.28      0.26      0.01
  137                 57.71      0.09      0.00
  145                310.57      1.98      2.09
  147                302.62      1.93      2.00
  149               -638.69      4.08      7.96
  151               -630.32      4.02      7.77
  153                349.37      0.99      0.36
  155                386.67      1.10      0.44
  159               -398.21      1.13      0.46
  161               -434.75      2.77      3.91
  163               -157.06      0.45      0.08
  169                216.69      1.38      1.08
  171                472.74      1.34      0.63
  173               7891.28      3.58      1.15
  175               7821.37      3.55      1.13
  177               7765.58      3.52      1.12
  179               7493.03      3.40      1.05
  180                  3.51      0.01      0.00
  181                  3.51      0.01      0.00
  183               7267.69      3.30      0.99
  185                -19.66      0.13      0.01
  186                334.40      2.13      2.40
  187               6634.34      3.01      0.84
  189               4656.04      2.11      0.43
  191              -1925.19      1.37      0.29
  193              -1464.96      1.04      0.18
  195                600.52      1.70      0.99
  197                521.99      1.48      0.76
  199                -53.44      0.15      0.01
  201               -575.44      1.63      0.91
  202                536.80      3.43      5.77
  203                237.03      1.51      1.27
  204                536.80      1.52      0.80
  205                334.40      0.95      0.33
  207                290.47      0.82      0.26
  209                161.71      1.03      0.63
  211                613.69      1.74      1.03
  213                172.69      0.49      0.10
  215                124.48      0.35      0.05
  217               -244.38      0.69      0.19
  219               -251.22      0.71      0.20
  221                251.22      1.60      1.41
  223                 38.87      0.11      0.01
  225                 61.88      0.18      0.01
  229               4656.04      3.30      1.29
  231               4367.23      3.10      1.14
  233               4304.39      3.05      1.29
  235                127.73      0.36      0.06
  237                466.65      1.32      0.62
  238                485.23      1.38      0.66
  239                112.26      0.32      0.04
  240                485.23      1.38      0.66
  241                485.23      1.38      0.66
  243                484.06      0.77      0.16
  245                314.82      0.50      0.07
  247                243.72      0.39      0.05
  249                119.26      0.19      0.01
  251                 55.78      0.12      0.01
  257                 30.78      0.09      0.00
  261                 52.29      0.33      0.08
  263                 22.25      0.06      0.00
  269                157.53      0.45      0.08
  271                 56.60      0.36      0.09
  273                 79.85      0.23      0.02
  275                 11.03      0.03      0.00
  277                  5.86      0.02      0.00
  281                  5.17      0.02      0.00
  283                  8.60      0.02      0.00
  285                -19.81      0.06      0.00
  287                -70.03      0.29      0.04
  289                241.99      0.99      0.45
  291                 73.60      0.30      0.05
  293                 43.83      0.28      0.06
  295                -11.21      0.03      0.00
  297                485.70      3.10      4.80
  299                233.35      1.49      1.23
  301                233.35      1.49      1.23
  303                252.35      1.61      1.43
  305                147.43      0.42      0.07
  307                399.78      1.13      0.46
  309                209.11      1.33      1.01
  311                -84.64      0.24      0.03
  313                473.40      1.34      0.63
  315              -2065.48      1.46      0.33
  317                109.65      0.70      0.30
  319                 18.09      0.05      0.00
  321               7476.80      3.39      1.04
  323                  2.61      0.01      0.00
  325                140.29      0.90      0.48
  329              13144.39      5.97      3.00
  330                  0.00      0.00      0.00
  333                 -0.00      0.00      0.00
  10                   0.00      0.00      0.00  Pump
  335              13144.39      0.00    -93.56  Pump
   
   
  Node Results at 0:25:00 hrs:
  --------------------------------------------------------
                     Demand      Head  Pressure  Chemical
  Node                  gpm        ft       psi      mg/L
  --------------------------------------------------------
  10                   0.00    146.13     -0.38      0.00
  15                 630.32    125.29     40.42      0.00
  20                   0.00    158.37     12.72      0.00
  35                1464.96    146.46     58.04      0.00
  40                   0.00    145.35      5.83      0.00
  50                   0.00    139.56      9.99      0.00
  60                   0.00    209.03     90.57      0.00
  601                  0.00    302.61    131.12      0.00
  61                   0.00    302.61    131.12      0.00
  101                256.43    146.13     45.12      0.00
  103                179.82    146.10     44.67      0.00
  105                182.75    147.43     51.53      0.00
  107                 73.76    147.43     54.35      0.00
  109                312.39    146.10     54.51      0.00
  111                191.62    146.75     59.25      0.00
  113                 27.01    146.80     62.74      0.00
  115                 70.33    147.54     57.86      0.00
  117                158.91    150.60     59.36      0.00
  119                237.78    158.06     67.62      0.00
  120                  0.00    155.65     67.44      0.00
  121                 56.20    161.48     70.84      0.00
  123                  0.00    165.93     67.13      0.00
  125                 61.56    160.88     64.94      0.00
  127                 23.84    159.13     44.69      0.00
  129                  0.00    159.12     46.85      0.00
  131                 57.71    159.10     66.34      0.00
  139                  7.95    153.36     53.02      0.00
  141                 13.30    149.26     62.94      0.00
  143                  8.37    138.11     61.79      0.00
  145                 37.30    150.53     64.79      0.00
  147                 11.54    151.49     57.62      0.00
  149                 36.54    151.89     58.88      0.00
  151                195.05    155.87     53.02      0.00
  153                 59.63    155.97     38.90      0.00
  157                 69.92    155.66     61.77      0.00
  159                 55.78    152.36     63.42      0.00
  161                 21.33    150.12     63.31      0.00
  163                 12.72    149.67     62.69      0.00
  164                  0.00    149.67     62.69      0.00
  166                  3.51    149.67     65.72      0.00
  167                 19.66    147.83     66.22      0.00
  169                  0.00    147.83     66.22      0.00
  171                 53.11    146.77     65.33      0.00
  173                  0.00    146.75     65.32      0.00
  177                 78.53    146.43     59.98      0.00
  179                  0.00    146.41     59.97      0.00
  181                  0.00    146.46     60.00      0.00
  183                  0.00    146.41     58.67      0.00
  184                  0.00    145.18     55.98      0.00
  185                 34.63    145.76     56.23      0.00
  187                  0.00    146.45     58.04      0.00
  189                145.69    146.76     61.86      0.00
  191                110.56    146.70     52.73      0.00
  193                 96.27    146.80     55.81      0.00
  195                  0.00    146.87     56.92      0.00
  197                 23.00    146.71     53.60      0.00
  199                161.08    141.59     62.22      0.00
  201                 60.22    140.86     60.99      0.00
[...]
  219                 71.07    136.81     57.55      0.00
  225                 39.22    136.82     55.82      0.00
  229                110.39    137.07     54.84      0.00
  231                 28.35    137.06     57.22      0.00
  237                 26.85    137.27     53.41      0.00
  239                 76.73    137.29     53.85      0.00
  241                  0.00    137.29     53.85      0.00
  243                  7.46    137.29     53.42      0.00
  247                121.05    137.31     51.70      0.00
  249                  0.00    137.31     51.70      0.00
  251                 41.56    137.36     46.52      0.00
  253                 93.77    137.76     44.09      0.00
  255                 69.47    137.85     48.03      0.00
  257                  0.00    151.39     58.23      0.00
  259                  0.00    150.90     54.55      0.00
  261                  0.00    149.12     64.61      0.00
  263                  0.00    148.93     64.53      0.00
  265                  0.00    147.84     64.06      0.00
  267                  0.00    146.00     54.16      0.00
  269                  0.00    146.54     63.50      0.00
  271                  0.00    146.11     60.71      0.00
  273                  0.00    139.19     56.84      0.00
  275                  0.00    138.28     55.58      0.00
  River           -13185.64    220.00      0.00      0.00  Reservoir
  Lake                 0.00    167.00      0.00      0.00  Reservoir
  1                 -857.13    148.38      7.14      0.00  Tank
  2                 -522.11    139.56      9.99      0.00  Tank
  3                  378.32    160.95     13.85      0.00  Tank
   
   
  Link Results at 23:55:00 hrs:
  ----------------------------------------------
                       Flow  Velocity  Headloss
  Link                  gpm       fps   /1000ft
  ----------------------------------------------
  20                -378.32      0.02      0.00
  40                 857.13      0.04      0.00
  50                 522.11      0.02      0.00
  60               13185.64      9.35      8.96
  101                  0.00      0.00      0.00
  103                134.70      0.21      0.02
  105               -461.42      1.31      0.61
  107                 -7.90      0.02      0.00
  109                -94.40      0.15      0.01
  111               -492.41      1.40      0.68
  112                453.71      1.29      0.59
  113               -195.83      0.56      0.12
  114                 95.59      0.61      0.24
  115               -101.88      0.65      0.27
  116               -134.66      0.38      0.06
  117                686.35      1.95      1.26
  119               -740.80      2.10      1.45
  120               1247.28      3.54      3.82
  121               1108.54      3.14      3.07
  122                382.34      2.44      3.08
  123               9924.78      4.50      1.76
  125              11403.76      5.18      2.28
  129               1025.04      0.73      0.09
  131                734.74      0.52      0.05
  133               -378.32      0.39      0.03
  135                326.05      0.23      0.01
  137                 73.53      0.12      0.00
  145                252.52      1.61      1.43
  147                242.38      1.55      1.32
  149               -366.23      2.34      2.84
  151               -355.57      2.27      2.69
  153                140.79      0.40      0.07
  155                188.32      0.53      0.12
  159               -203.02      0.58      0.13
  161               -249.58      1.59      1.40
  163               -135.90      0.39      0.06
  169                211.87      1.35      1.03
  171                362.19      1.03      0.39
  173               8012.37      3.64      1.19
  175               7923.29      3.60      1.16
  177               7852.22      3.56      1.14
  179               7549.97      3.43      1.06
  180                  4.47      0.01      0.00
  181                  4.47      0.01      0.00
  183               7303.03      3.31      1.00
  185                -25.04      0.16      0.02
  186                323.98      2.07      2.27
  187               6638.72      3.01      0.84
  189               5467.23      2.48      0.58
  191              -1103.83      0.78      0.10
  193              -1632.90      1.16      0.21
  195               -414.38      1.18      0.50
  197               -514.43      1.46      0.74
  199                342.70      0.97      0.35
  201                857.13      2.43      1.91
  202                624.37      3.99      7.64
  203                344.51      2.20      2.54
  204                624.37      1.77      1.06
  205                323.98      0.92      0.31
  207                  1.82      0.01      0.00
  209                240.40      1.53      1.30
  211                639.26      1.81      1.11
  213                 83.57      0.24      0.03
  215                -96.73      0.27      0.03
  217               -340.75      0.97      0.35
  219               -275.07      0.78      0.23
  221                275.07      1.76      1.67
  223               -116.31      0.33      0.05
  225                -87.00      0.25      0.03
  229               5467.23      3.88      1.73
  231               5125.69      3.64      1.54
  233               5173.45      3.67      1.82
  235                136.31      0.39      0.06
  237                520.13      1.48      0.76
  238                404.42      1.15      0.47
  239                  3.65      0.01      0.00
  240                404.42      1.15      0.47
  241                404.42      1.15      0.47
  243                402.93      0.64      0.12
  245                374.08      0.60      0.10
  247                310.51      0.50      0.07
  249                151.94      0.24      0.02
  251                 71.07      0.15      0.01
  257                 39.22      0.11      0.01
  261                 39.59      0.25      0.05
  263                 28.35      0.08      0.00
  269                 13.93      0.04      0.00
  271                 99.14      0.63      0.25
  273               -112.06      0.32      0.04
  275                -66.11      0.19      0.02
  277                  7.46      0.02      0.00
  281                -73.57      0.30      0.05
  283               -122.68      0.35      0.05
  285                 29.44      0.08      0.00
  287               -224.07      0.92      0.39
  289                522.11      2.13      1.85
  291                 93.77      0.38      0.08
  293                134.79      0.86      0.45
  295                -93.24      0.26      0.03
  297                521.07      3.33      5.46
  299                250.51      1.60      1.41
  301                250.51      1.60      1.41
  303                270.56      1.73      1.62
  305                165.28      0.47      0.09
  307                435.84      1.24      0.54
  309                226.27      1.44      1.17
  311               -322.99      0.92      0.31
  313                524.57      1.49      0.77
  315              -1218.52      0.86      0.12
  317                128.14      0.82      0.41
  319                  8.17      0.02      0.00
  321               7529.30      3.42      1.06
  323               -124.49      0.35      0.05
  325                114.69      0.73      0.33
  329              13185.64      5.98      3.02
  330                  0.00      0.00      0.00
  333                 -0.00      0.00      0.00
  10                   0.00      0.00      0.00  Pump
  335              13185.64      0.00    -93.20  Pump
   
   
  Node Results at 24:00:00 hrs:
  --------------------------------------------------------
                     Demand      Head  Pressure  Chemical
  Node                  gpm        ft       psi      mg/L
  --------------------------------------------------------
  10                   0.00    148.54      0.67      0.00
  15                 630.32    127.76     41.49      0.00
  20                   0.00    160.97     13.85      0.00
  35                1464.96    148.88     59.09      0.00
  40                   0.00    148.28      7.10      0.00
  50                   0.00    139.38      9.91      0.00
  60                   0.00    209.16     90.63      0.00
  601                  0.00    303.44    131.48      0.00
  61                   0.00    303.44    131.48      0.00
  101                256.43    148.54     46.16      0.00
  103                179.82    148.51     45.72      0.00
  105                182.75    149.83     52.57      0.00
  107                 73.76    149.83     55.39      0.00
  109                312.39    148.51     55.55      0.00
  111                191.62    149.15     60.29      0.00
  113                 27.01    149.20     63.78      0.00
  115                 70.33    149.94     58.90      0.00
  117                158.91    153.01     60.41      0.00
  119                237.78    160.47     68.66      0.00
  120                  0.00    158.06     68.49      0.00
  121                 56.20    163.89     71.88      0.00
  123                  0.00    168.29     68.15      0.00
  125                 61.56    163.32     66.00      0.00
  127                 23.84    161.68     45.79      0.00
  129                  0.00    161.67     47.95      0.00
  131                 57.71    161.65     67.44      0.00
  139                  7.95    155.86     54.10      0.00
  141                 13.30    151.72     64.01      0.00
  143                  8.37    140.58     62.86      0.00
  145                 37.30    152.98     65.85      0.00
  147                 11.54    153.94     58.68      0.00
  149                 36.54    154.34     59.94      0.00
  151                195.05    158.30     54.07      0.00
  153                 59.63    158.39     39.95      0.00
  157                 69.92    158.06     62.81      0.00
  159                 55.78    154.76     64.46      0.00
  161                 21.33    152.51     64.35      0.00
  163                 12.72    152.06     63.72      0.00
  164                  0.00    152.06     63.72      0.00
  166                  3.51    152.06     66.75      0.00
  167                 19.66    150.22     67.26      0.00
  169                  0.00    150.22     67.26      0.00
  171                 53.11    149.15     66.36      0.00
  173                  0.00    149.13     66.35      0.00
  177                 78.53    148.86     61.04      0.00
  179                  0.00    148.85     61.03      0.00
  181                  0.00    148.88     61.04      0.00
  183                  0.00    148.85     59.73      0.00
  184                  0.00    147.50     56.98      0.00
  185                 34.63    148.13     57.25      0.00
  187                  0.00    148.84     59.08      0.00
  189                145.69    149.17     62.90      0.00
  191                110.56    149.10     53.77      0.00
  193                 96.27    149.20     56.85      0.00
  195                  0.00    149.27     57.96      0.00
  197                 23.00    149.11     54.64      0.00
  199                161.08    143.65     63.11      0.00
  201                 60.22    142.90     61.87      0.00
  203               4304.39    142.74     60.98      0.00
  204                  0.00    148.59     55.28      0.00
  205                 88.24    143.58     53.11      0.88
  206                  0.00    142.10     61.14      0.68
  207                 93.68    142.64     57.91      0.76
  208                  0.00    141.49     54.38      0.99
  209                  1.17    140.43     61.72     41.15
  211                 11.70    140.08     57.66     61.44
  213                 18.82    139.98     57.62     64.07
  215                124.46    139.79     57.54      0.00
  217                 32.70    139.77     57.96      0.00
  219                 55.78    139.76     58.82      0.00
  225                 30.78    139.76     57.09      0.00
  229                 86.64    139.50     55.90      0.00
  231                 22.25    139.50     58.28      0.00
  237                 21.07    139.51     54.38      0.00
  239                 60.22    139.40     54.77      0.00
  241                  0.00    139.40     54.77      0.00
  243                  5.86    139.40     54.34      0.00
  247                 95.01    139.38     52.59      0.00
  249                  0.00    139.38     52.59      0.00
  251                 32.62    139.36     47.39      0.00
  253                 73.60    139.29     44.76      0.00
  255                 54.53    139.35     48.68      0.00
  257                  0.00    154.96     59.78      0.00
  259                  0.00    154.53     56.12      0.00
  261                  0.00    152.96     66.28      0.00
  263                  0.00    152.80     66.21      0.00
  265                  0.00    150.81     65.34      0.00
  267                  0.00    149.23     55.56      0.00
  269                  0.00    149.57     64.81      0.00
  271                  0.00    148.96     61.94      0.00
  273                  0.00    143.58     58.75      0.00
  275                  0.00    142.88     57.58      0.00
  River           -13062.52    220.00      0.00      0.00  Reservoir
  Lake                 0.00    167.00      0.00      0.00  Reservoir
  1                  406.02    148.28      7.10      0.00  Tank
  2                  -60.07    139.38      9.91      0.00  Tank
  3                 2201.95    160.97     13.85      0.00  Tank
   
   
  Link Results at 24:00:00 hrs:
  ----------------------------------------------
                       Flow  Velocity  Headloss
  Link                  gpm       fps   /1000ft
  ----------------------------------------------
  20               -2201.95      0.09      0.00
  40                -406.02      0.02      0.00
  50                  60.07      0.00      0.00
  60               13062.52      9.26      8.81
  101                  0.00      0.00      0.00
  103                164.71      0.26      0.02
  105               -421.14      1.19      0.51
  107                 29.60      0.08      0.00
  109                -15.11      0.02      0.00
  111               -327.50      0.93      0.32
  112                491.82      1.40      0.68
  113                -90.16      0.26      0.03
  114                121.84      0.78      0.37
  115                -44.17      0.28      0.06
  116                  4.66      0.01      0.00
  117                633.49      1.80      1.09
  119               -728.16      2.07      1.41
  120               1154.11      3.27      3.31
  121               1034.58      2.93      2.70
  122                366.45      2.34      2.85
  123               9765.51      4.43      1.71
  125              13062.52      5.93      2.93
  129               2874.36      2.04      0.61
  131               2595.57      1.84      0.51
  133              -2201.95      2.25      0.91
  135                369.78      0.26      0.01
  137                 57.71      0.09      0.00
  145                312.06      1.99      2.11
  147                304.11      1.94      2.01
  149               -638.69      4.08      7.96
  151               -630.32      4.02      7.77
  153                347.87      0.99      0.36
  155                385.17      1.09      0.43
  159               -396.72      1.13      0.46
  161               -433.26      2.77      3.88
  163               -157.60      0.45      0.08
  169                217.23      1.39      1.08
  171                470.71      1.34      0.63
  173               7902.92      3.59      1.16
  175               7833.00      3.56      1.14
  177               7777.22      3.53      1.12
  179               7505.04      3.41      1.05
  180                  3.51      0.01      0.00
  181                  3.51      0.01      0.00
  183               7280.84      3.30      0.99
  185                -19.66      0.13      0.01
  186                342.55      2.19      2.51
  187               6654.15      3.02      0.84
  189               4814.59      2.19      0.46
  191              -1786.45      1.27      0.25
  193              -1464.96      1.04      0.18
  195                460.62      1.31      0.60
  197                382.09      1.08      0.43
  199                -23.94      0.07      0.00
  201               -406.02      1.15      0.48
  202                560.16      3.58      6.24
  203                252.25      1.61      1.43
  204                560.16      1.59      0.87
  205                342.55      0.97      0.35
  207                276.18      0.78      0.23
  209                166.42      1.06      0.66
  211                607.04      1.72      1.01
  213                176.12      0.50      0.10
  215                120.39      0.34      0.05
  217               -246.83      0.70      0.19
  219               -250.85      0.71      0.20
  221                250.85      1.60      1.41
  223                 39.86      0.11      0.01
  225                 62.87      0.18      0.02
  229               4814.59      3.41      1.37
  231               4484.53      3.18      1.20
  233               4304.39      3.05      1.29
  235                168.98      0.48      0.09
  237                529.23      1.50      0.78
  238                667.15      1.89      1.20
  239                231.60      0.66      0.17
  240                667.15      1.89      1.20
  241                667.15      1.89      1.20
  243                665.98      1.06      0.29
  245                354.46      0.57      0.09
  247                243.72      0.39      0.05
  249                119.26      0.19      0.01
  251                 55.78      0.12      0.01
  257                 30.78      0.09      0.00
  261                 91.92      0.59      0.22
  263                 22.25      0.06      0.00
  269                299.81      0.85      0.27
  271                 16.97      0.11      0.01
  273                261.77      0.74      0.21
  275                 79.12      0.22      0.02
  277                  5.86      0.02      0.00
  281                 73.26      0.30      0.05
  283                122.43      0.35      0.05
  285                -69.45      0.20      0.02
  287                 47.70      0.19      0.02
  289                 60.07      0.25      0.03
  291                 73.60      0.30      0.05
  293                -20.36      0.13      0.01
  295                 52.97      0.15      0.01
  297                485.98      3.10      4.80
  299                233.49      1.49      1.24
  301                233.49      1.49      1.23
  303                252.50      1.61      1.43
  305                147.51      0.42      0.07
  307                400.00      1.13      0.46
  309                207.97      1.33      1.00
  311                -87.58      0.25      0.03
  313                467.91      1.33      0.62
  315              -1925.58      1.37      0.29
  317                111.68      0.71      0.32
  319                 57.30      0.16      0.01
  321               7488.81      3.40      1.05
  323                119.91      0.34      0.05
  325                139.13      0.89      0.47
  329              13062.52      5.93      2.97
  330                  0.00      0.00      0.00
  333                 -0.00      0.00      0.00
  10                   0.00      0.00      0.00  Pump
  335              13062.52      0.00    -94.28  Pump
   
  Analysis ended Wed May 06 17:20:26 2020
