  Page 1                                    Wed May 06 17:21:29 2020

  ******************************************************************
  *                           E P A N E T                          *
  *                   Hydraulic and Water Quality                  *
  *                   Analysis for Pipe Networks                   *
  *                         Version 2.00.12                        *
  ******************************************************************
  
  Analysis begun Wed May 06 17:21:29 2020

   
  Hydraulic Status:
  -----------------------------------------------------------------------
     0:00:00: Balanced after 6 trials
     0:00:00: Reservoir River is emptying
     0:00:00: Reservoir Lake is closed
     0:00:00: Tank 1 is filling at 13.10 ft
     0:00:00: Tank 2 is emptying at 23.50 ft
     0:00:00: Tank 3 is filling at 29.00 ft
   
     0:05:00: Balanced after 2 trials
   
     0:10:00: Balanced after 2 trials
   
     0:15:00: Balanced after 2 trials
   
     0:20:00: Balanced after 2 trials
   
     0:25:00: Balanced after 2 trials
   
     0:30:00: Balanced after 2 trials
   
     0:35:00: Balanced after 2 trials
   
     0:40:00: Balanced after 2 trials
   
     0:45:00: Balanced after 2 trials
   
     0:50:00: Balanced after 2 trials
   
     0:55:00: Balanced after 2 trials
   
     1:00:00: Pump 10 changed by timer control
     1:00:00: Balanced after 7 trials
     1:00:00: Reservoir Lake is emptying
     1:00:00: Pump 10 changed from closed to open
   
     1:05:00: Balanced after 2 trials
   
     1:10:00: Balanced after 2 trials
   
     1:15:00: Balanced after 2 trials
   
     1:20:00: Balanced after 2 trials
   
     1:25:00: Balanced after 2 trials
   
     1:30:00: Balanced after 2 trials
   
     1:35:00: Balanced after 2 trials
   
     1:40:00: Balanced after 2 trials
   
     1:45:00: Balanced after 2 trials
   
     1:50:00: Balanced after 2 trials
   
     1:55:00: Balanced after 2 trials
   
     2:00:00: Balanced after 4 trials
     2:00:00: Tank 2 is filling at 21.01 ft
   
     2:05:00: Balanced after 1 trials
   
     2:10:00: Balanced after 1 trials
   
     2:15:00: Balanced after 1 trials
   
     2:20:00: Balanced after 1 trials
   
     2:25:00: Balanced after 1 trials
   
     2:30:00: Balanced after 1 trials
   
     2:35:00: Balanced after 1 trials
   
     2:40:00: Balanced after 1 trials
   
     2:45:00: Balanced after 1 trials
   
     2:50:00: Balanced after 1 trials
   
     2:55:00: Balanced after 1 trials
   
     3:00:00: Balanced after 2 trials
   
     3:05:00: Balanced after 1 trials
   
     3:10:00: Balanced after 1 trials
   
     3:15:00: Balanced after 1 trials
   
     3:20:00: Balanced after 1 trials
   
     3:25:00: Balanced after 1 trials
   
     3:30:00: Balanced after 1 trials
   
     3:35:00: Balanced after 1 trials
   
     3:40:00: Balanced after 1 trials
   
     3:45:00: Balanced after 1 trials
   
     3:50:00: Balanced after 1 trials
   
     3:55:00: Balanced after 1 trials
   
     4:00:00: Balanced after 3 trials
   
     4:05:00: Balanced after 1 trials
   
     4:09:11: Pump 335 changed by Tank 1 control
     4:09:11: Pipe 330 changed by Tank 1 control
     4:09:11: Balanced after 4 trials
     4:09:11: Pipe 330 changed from closed to open
     4:09:11: Pump 335 changed from open to closed
   
     4:10:00: Balanced after 1 trials
   
     4:15:00: Balanced after 2 trials
   
     4:20:00: Balanced after 2 trials
   
     4:25:00: Balanced after 2 trials
   
     4:30:00: Balanced after 2 trials
   
     4:35:00: Balanced after 2 trials
   
     4:40:00: Balanced after 2 trials
   
     4:45:00: Balanced after 2 trials
   
     4:50:00: Balanced after 2 trials
   
     4:55:00: Balanced after 2 trials
   
     5:00:00: Balanced after 3 trials
     5:00:00: Tank 3 is emptying at 34.32 ft
   
     5:05:00: Balanced after 2 trials
   
     5:10:00: Balanced after 2 trials
   
     5:15:00: Balanced after 2 trials
   
     5:20:00: Balanced after 2 trials
   
     5:25:00: Balanced after 2 trials
   
     5:30:00: Balanced after 2 trials
   
     5:35:00: Balanced after 2 trials
   
     5:40:00: Balanced after 2 trials
   
     5:45:00: Balanced after 2 trials
   
     5:50:00: Balanced after 2 trials
   
     5:55:00: Balanced after 2 trials
   
     6:00:00: Balanced after 3 trials
     6:00:00: Tank 3 is filling at 34.25 ft
   
     6:05:00: Balanced after 1 trials
   
     6:10:00: Balanced after 1 trials
   
     6:15:00: Balanced after 1 trials
   
     6:20:00: Balanced after 1 trials
   
     6:25:00: Balanced after 1 trials
   
     6:30:00: Balanced after 1 trials
   
     6:35:00: Balanced after 1 trials
   
     6:40:00: Balanced after 1 trials
   
     6:45:00: Balanced after 1 trials
   
     6:50:00: Balanced after 1 trials
   
     6:55:00: Balanced after 1 trials
   
     7:00:00: Balanced after 3 trials
   
     7:05:00: Balanced after 1 trials
   
     7:10:00: Balanced after 1 trials
   
     7:15:00: Balanced after 1 trials
   
     7:20:00: Balanced after 1 trials
   
     7:25:00: Balanced after 1 trials
   
     7:30:00: Balanced after 1 trials
   
     7:35:00: Balanced after 1 trials
   
     7:40:00: Balanced after 1 trials
   
     7:45:00: Balanced after 1 trials
   
     7:50:00: Balanced after 1 trials
   
     7:55:00: Balanced after 1 trials
   
     8:00:00: Balanced after 3 trials
   
     8:05:00: Balanced after 1 trials
   
     8:10:00: Balanced after 1 trials
   
     8:15:00: Balanced after 1 trials
   
     8:20:00: Balanced after 1 trials
   
     8:25:00: Balanced after 1 trials
   
     8:30:00: Balanced after 1 trials
   
     8:35:00: Balanced after 1 trials
   
     8:40:00: Balanced after 1 trials
   
     8:45:00: Balanced after 1 trials
   
     8:50:00: Balanced after 1 trials
   
     8:55:00: Balanced after 1 trials
   
     9:00:00: Balanced after 3 trials
     9:00:00: Tank 1 is emptying at 21.85 ft
     9:00:00: Tank 3 is emptying at 35.15 ft
   
     9:05:00: Balanced after 1 trials
   
     9:10:00: Balanced after 1 trials
   
     9:15:00: Balanced after 1 trials
   
     9:20:00: Balanced after 1 trials
   
     9:25:00: Balanced after 1 trials
   
     9:30:00: Balanced after 1 trials
   
     9:35:00: Balanced after 1 trials
   
     9:40:00: Balanced after 1 trials
   
     9:45:00: Balanced after 1 trials
   
     9:50:00: Balanced after 1 trials
   
     9:55:00: Balanced after 1 trials
   
    10:00:00: Balanced after 3 trials
    10:00:00: Tank 2 is emptying at 26.95 ft
   
    10:05:00: Balanced after 1 trials
   
    10:10:00: Balanced after 1 trials
   
    10:15:00: Balanced after 1 trials
   
    10:20:00: Balanced after 1 trials
   
    10:25:00: Balanced after 1 trials
   
    10:30:00: Balanced after 1 trials
   
    10:35:00: Balanced after 1 trials
   
    10:40:00: Balanced after 1 trials
   
    10:45:00: Balanced after 1 trials
   
    10:50:00: Balanced after 1 trials
   
    10:55:00: Balanced after 1 trials
   
    11:00:00: Balanced after 3 trials
    11:00:00: Tank 1 is filling at 21.54 ft
    11:00:00: Tank 2 is filling at 26.84 ft
   
    11:05:00: Balanced after 2 trials
   
    11:10:00: Balanced after 2 trials
   
    11:15:00: Balanced after 2 trials
   
    11:20:00: Balanced after 2 trials
   
    11:25:00: Balanced after 2 trials
   
    11:30:00: Balanced after 2 trials
   
    11:35:00: Balanced after 2 trials
   
    11:40:00: Balanced after 2 trials
   
    11:45:00: Balanced after 2 trials
   
    11:50:00: Balanced after 2 trials
   
    11:55:00: Balanced after 2 trials
   
    12:00:00: Balanced after 3 trials
    12:00:00: Tank 1 is emptying at 22.03 ft
    12:00:00: Tank 2 is emptying at 27.12 ft
   
    12:05:00: Balanced after 1 trials
   
    12:10:00: Balanced after 1 trials
   
    12:15:00: Balanced after 1 trials
   
    12:20:00: Balanced after 1 trials
   
    12:25:00: Balanced after 1 trials
   
    12:30:00: Balanced after 1 trials
   
    12:35:00: Balanced after 1 trials
   
    12:40:00: Balanced after 1 trials
   
    12:45:00: Balanced after 1 trials
   
    12:50:00: Balanced after 1 trials
   
    12:55:00: Balanced after 1 trials
   
    13:00:00: Balanced after 2 trials
   
    13:05:00: Balanced after 1 trials
   
    13:10:00: Balanced after 1 trials
   
    13:15:00: Balanced after 1 trials
   
    13:20:00: Balanced after 1 trials
   
    13:25:00: Balanced after 1 trials
   
    13:30:00: Balanced after 1 trials
   
    13:35:00: Balanced after 1 trials
   
    13:40:00: Balanced after 1 trials
   
    13:45:00: Balanced after 1 trials
   
    13:50:00: Balanced after 1 trials
   
    13:55:00: Balanced after 1 trials
   
    14:00:00: Balanced after 3 trials
    14:00:00: Tank 1 is filling at 21.18 ft
    14:00:00: Tank 2 is filling at 26.49 ft
   
    14:05:00: Balanced after 2 trials
   
    14:10:00: Balanced after 2 trials
   
    14:15:00: Balanced after 2 trials
   
    14:20:00: Balanced after 2 trials
   
    14:25:00: Balanced after 2 trials
   
    14:30:00: Balanced after 2 trials
   
    14:35:00: Balanced after 2 trials
   
    14:40:00: Balanced after 2 trials
   
    14:45:00: Balanced after 2 trials
   
    14:50:00: Balanced after 2 trials
   
    14:55:00: Balanced after 2 trials
   
    15:00:00: Pump 10 changed by timer control
    15:00:00: Balanced after 5 trials
    15:00:00: Reservoir Lake is closed
    15:00:00: Tank 1 is emptying at 21.72 ft
    15:00:00: Tank 2 is emptying at 27.14 ft
    15:00:00: Pump 10 changed from open to closed
   
    15:05:00: Balanced after 2 trials
   
    15:10:00: Balanced after 2 trials
   
    15:15:00: Balanced after 2 trials
   
    15:20:00: Balanced after 2 trials
   
    15:25:00: Balanced after 2 trials
   
    15:30:00: Balanced after 2 trials
   
    15:35:00: Balanced after 2 trials
   
    15:40:00: Balanced after 2 trials
   
    15:45:00: Balanced after 2 trials
   
    15:50:00: Balanced after 2 trials
   
    15:55:00: Balanced after 1 trials
   
    16:00:00: Balanced after 3 trials
    16:00:00: Tank 2 is filling at 26.72 ft
   
    16:05:00: Balanced after 2 trials
   
    16:10:00: Balanced after 2 trials
   
    16:15:00: Balanced after 2 trials
   
    16:20:00: Balanced after 2 trials
   
    16:25:00: Balanced after 2 trials
   
    16:30:00: Balanced after 2 trials
   
    16:35:00: Balanced after 2 trials
   
    16:40:00: Balanced after 2 trials
   
    16:45:00: Balanced after 2 trials
   
    16:50:00: Balanced after 2 trials
   
    16:55:00: Balanced after 2 trials
   
    17:00:00: Balanced after 2 trials
   
    17:05:00: Balanced after 2 trials
   
    17:10:00: Balanced after 2 trials
   
    17:15:00: Balanced after 2 trials
   
    17:20:00: Balanced after 2 trials
   
    17:25:00: Balanced after 2 trials
   
    17:30:00: Balanced after 2 trials
   
    17:35:00: Balanced after 1 trials
    17:35:00: Tank 2 is closed at 27.13 ft
   
    17:40:00: Balanced after 1 trials
    17:40:00: Tank 2 is emptying at 27.13 ft
   
    17:45:00: Balanced after 1 trials
   
    17:50:00: Balanced after 1 trials
   
    17:55:00: Balanced after 1 trials
   
    18:00:00: Balanced after 3 trials
    18:00:00: Tank 2 is filling at 27.12 ft
   
    18:05:00: Balanced after 2 trials
   
    18:10:00: Balanced after 2 trials
   
    18:15:00: Balanced after 2 trials
   
    18:20:00: Balanced after 2 trials
   
    18:25:00: Balanced after 2 trials
   
    18:30:00: Balanced after 2 trials
   
    18:35:00: Balanced after 2 trials
   
    18:40:00: Balanced after 1 trials
   
    18:45:00: Balanced after 1 trials
   
    18:50:00: Balanced after 1 trials
   
    18:55:00: Balanced after 1 trials
   
    19:00:00: Balanced after 3 trials
    19:00:00: Tank 2 is emptying at 27.33 ft
   
    19:05:00: Balanced after 1 trials
   
    19:10:00: Balanced after 1 trials
   
    19:15:00: Balanced after 1 trials
   
    19:20:00: Balanced after 1 trials
   
    19:25:00: Balanced after 1 trials
   
    19:30:00: Balanced after 1 trials
   
    19:35:00: Balanced after 1 trials
   
    19:40:00: Balanced after 1 trials
   
    19:45:00: Balanced after 1 trials
   
    19:50:00: Balanced after 1 trials
   
    19:55:00: Balanced after 1 trials
   
    20:00:00: Balanced after 3 trials
   
    20:05:00: Balanced after 1 trials
   
    20:10:00: Balanced after 1 trials
   
    20:15:00: Balanced after 1 trials
   
    20:20:00: Balanced after 1 trials
   
    20:25:00: Balanced after 1 trials
   
    20:30:00: Balanced after 1 trials
   
    20:35:00: Balanced after 1 trials
   
    20:40:00: Balanced after 1 trials
   
    20:45:00: Balanced after 1 trials
   
    20:50:00: Balanced after 1 trials
   
    20:55:00: Balanced after 1 trials
   
    21:00:00: Balanced after 3 trials
   
    21:05:00: Balanced after 1 trials
   
    21:10:00: Balanced after 1 trials
   
    21:15:00: Balanced after 1 trials
   
    21:20:00: Balanced after 1 trials
   
    21:25:00: Balanced after 1 trials
   
    21:26:47: Pump 335 changed by Tank 1 control
    21:26:47: Pipe 330 changed by Tank 1 control
    21:26:47: Balanced after 5 trials
    21:26:47: Tank 1 is filling at 17.10 ft
    21:26:47: Tank 3 is filling at 29.45 ft
    21:26:47: Pipe 330 changed from open to closed
    21:26:47: Pump 335 changed from closed to open
   
    21:30:00: Balanced after 1 trials
   
    21:35:00: Balanced after 1 trials
    21:35:00: Tank 2 is filling at 26.32 ft
   
    21:40:00: Balanced after 1 trials
   
    21:45:00: Balanced after 1 trials
   
    21:50:00: Balanced after 1 trials
   
    21:55:00: Balanced after 1 trials
   
    22:00:00: Balanced after 4 trials
    22:00:00: Tank 1 is emptying at 17.47 ft
    22:00:00: Tank 2 is emptying at 26.34 ft
   
    22:05:00: Balanced after 2 trials
   
    22:10:00: Balanced after 2 trials
   
    22:15:00: Balanced after 2 trials
   
    22:20:00: Balanced after 2 trials
   
    22:25:00: Balanced after 2 trials
   
    22:30:00: Balanced after 2 trials
   
    22:35:00: Balanced after 2 trials
   
    22:40:00: Balanced after 2 trials
   
    22:45:00: Balanced after 2 trials
   
    22:50:00: Balanced after 2 trials
   
    22:55:00: Balanced after 2 trials
   
    23:00:00: Balanced after 3 trials
   
    23:05:00: Balanced after 2 trials
   
    23:10:00: Balanced after 2 trials
   
    23:15:00: Balanced after 2 trials
   
    23:20:00: Balanced after 2 trials
   
    23:25:00: Balanced after 2 trials
   
    23:30:00: Balanced after 2 trials
   
    23:35:00: Balanced after 2 trials
   
    23:40:00: Balanced after 2 trials
   
    23:45:00: Balanced after 2 trials
   
    23:50:00: Balanced after 2 trials
   
    23:55:00: Balanced after 2 trials
   
    24:00:00: Balanced after 4 trials
   
   
  Node Results at 0:00:00 hrs:
  --------------------------------------------------------
                     Demand      Head  Pressure  Chemical
  Node                  gpm        ft       psi      mg/L
  --------------------------------------------------------
  10                   0.00    144.59     -1.05      0.00
  15                 596.36    127.46     41.36      0.00
  20                   0.00    158.00     12.57      0.00
  35                1601.44    145.18     57.49      0.00
  40                   0.00    145.00      5.68      0.00
  50                   0.00    140.00     10.18      0.00
  60                   0.00    209.00     90.56      0.00
  601                  0.00    302.35    131.01      0.00
  61                   0.00    302.35    131.01      0.00
  101                271.63    144.59     44.45      0.00
  103                190.48    144.56     44.01      0.00
  105                193.58    145.96     50.90      0.00
  107                 78.14    145.96     53.71      0.00
  109                330.90    144.56     53.84      0.00
  111                202.97    145.32     58.64      0.00
  113                 28.61    145.40     62.13      0.00
  115                 74.50    146.12     57.25      0.00
  117                168.33    149.31     58.80      0.00
  119                251.87    157.16     67.23      0.00
  120                  0.00    154.61     66.99      0.00
  121                 59.53    160.71     70.50      0.00
  123                  0.00    165.17     66.80      0.00
  125                 65.21    160.17     64.64      0.00
  127                 25.25    158.65     44.48      0.00
  129                  0.00    158.64     46.64      0.00
  131                 61.13    158.62     66.13      0.00
  139                  8.42    153.07     52.89      0.00
  141                 14.09    149.12     62.88      0.00
  143                  8.87    139.03     62.19      0.00
  145                 39.51    150.21     64.65      0.00
  147                 12.23    151.06     57.44      0.00
  149                 38.71    151.43     58.68      0.00
  151                206.61    155.05     52.67      0.00
  153                 63.16    155.15     38.54      0.00
  157                 74.06    154.67     61.34      0.00
  159                 59.09    151.24     62.93      0.00
  161                 22.59    148.92     62.79      0.00
  163                 13.47    148.45     62.16      0.00
  164                  0.00    148.45     62.16      0.00
  166                  3.72    148.45     65.19      0.00
  167                 20.82    146.55     65.67      0.00
  169                  0.00    146.55     65.67      0.00
  171                 56.26    145.45     64.76      0.00
  173                  0.00    145.43     64.75      0.00
  177                 83.18    145.18     59.44      0.00
  179                  0.00    145.17     59.44      0.00
  181                  0.00    145.18     59.44      0.00
  183                  0.00    145.17     58.14      0.00
  184                  0.00    143.72     55.34      0.00
  185                 36.68    144.37     55.62      0.00
  187                  0.00    145.07     57.44      0.00
  189                154.33    145.43     61.28      0.00
  191                117.12    145.30     52.12      0.00
  193                101.97    145.40     55.20      0.00
  195                  0.00    145.48     56.32      0.00
  197                 24.37    145.30     52.99      0.00
  199                170.63    139.71     61.40      0.00
  201                 63.79    138.90     60.14      0.00
  203               4747.88    138.71     59.24      0.00
  204                  0.00    144.82     53.65      0.00
  205                 93.46    139.68     51.42      0.00
  206                  0.00    138.79     59.71      0.00
  207                 99.23    138.94     56.30      0.00
  208                  0.00    138.63     53.14      0.00
  209                  1.24    138.36     60.82      0.00
  211                 12.40    138.27     56.88      0.00
  213                 19.93    138.19     56.85      0.00
  215                131.83    137.98     56.75      0.00
  217                 34.63    137.95     57.18      0.00
  219                 59.09    137.94     58.04      0.00
  225                 32.60    137.95     56.31      0.00
  229                 91.78    138.12     55.30      0.00
  231                 23.57    138.12     57.68      0.00
  237                 22.32    138.27     53.84      0.00
  239                 63.79    138.29     54.29      0.00
  241                  0.00    138.29     54.29      0.00
  243                  6.21    138.29     53.85      0.00
  247                100.64    138.30     52.13      0.00
  249                  0.00    138.30     52.13      0.00
  251                 34.55    138.34     46.94      0.00
  253                 77.96    138.66     44.48      0.00
  255                 57.76    138.72     48.41      0.00
  257                  0.00    151.36     58.22      0.00
  259                  0.00    150.90     54.55      0.00
  261                  0.00    149.26     64.67      0.00
  263                  0.00    149.08     64.60      0.00
  265                  0.00    147.15     63.76      0.00
  267                  0.00    145.47     53.93      0.00
  269                  0.00    145.86     63.20      0.00
  271                  0.00    145.26     60.34      0.00
  273                  0.00    139.68     57.06      0.00
  275                  0.00    138.92     55.86      0.00
  River           -13167.94    220.00      0.00      0.00  Reservoir
  Lake                 0.00    167.00      0.00      0.00  Reservoir
  1                  211.93    145.00      5.68      0.00  Tank
  2                 -447.08    140.00     10.18      0.00  Tank
  3                 2098.61    158.00     12.57      0.00  Tank
   
   
  Link Results at 0:00:00 hrs:
  ----------------------------------------------
                       Flow  Velocity  Headloss
  Link                  gpm       fps   /1000ft
  ----------------------------------------------
  20               -2098.61      0.09      0.00
  40                -211.93      0.01      0.00
  50                 447.08      0.02      0.00
  60               13167.94      9.34      8.94
  101                  0.00      0.00      0.00
  103                162.46      0.26      0.02
  105               -434.09      1.23      0.54
  107                 23.80      0.07      0.00
  109                -28.01      0.04      0.00
  111               -358.91      1.02      0.38
  112                494.07      1.40      0.69
  113               -114.59      0.33      0.05
  114                119.96      0.77      0.36
  115                -54.33      0.35      0.08
  116                -23.24      0.07      0.00
  117                651.47      1.85      1.15
  119               -742.87      2.11      1.46
  120               1187.58      3.37      3.48
  121               1063.21      3.02      2.84
  122                375.09      2.39      2.97
  123               9958.40      4.52      1.77
  125              13167.94      5.98      2.98
  129               2774.92      1.97      0.57
  131               2490.11      1.77      0.47
  133              -2098.61      2.14      0.83
  135                366.24      0.26      0.01
  137                 61.13      0.10      0.00
  145                305.11      1.95      2.03
  147                296.69      1.89      1.92
  149               -605.23      3.86      7.21
  151               -596.36      3.81      7.01
  153                322.62      0.92      0.31
  155                362.13      1.03      0.39
  159               -374.36      1.06      0.41
  161               -413.07      2.64      3.55
  163               -156.44      0.44      0.08
  169                219.60      1.40      1.10
  171                463.23      1.31      0.61
  173               8055.72      3.66      1.20
  175               7981.66      3.62      1.18
  177               7922.57      3.60      1.16
  179               7641.01      3.47      1.09
  180                  3.72      0.01      0.00
  181                  3.72      0.01      0.00
  183               7407.90      3.36      1.03
  185                -20.82      0.13      0.01
  186                339.52      2.17      2.47
  187               6761.41      3.07      0.87
  189               4928.92      2.24      0.48
  191              -1776.23      1.26      0.25
  193              -1601.44      1.14      0.21
  195                313.01      0.89      0.30
  197                229.83      0.65      0.17
  199                 17.90      0.05      0.00
  201               -211.93      0.60      0.14
  202                569.30      3.63      6.43
  203                266.46      1.70      1.58
  204                569.30      1.61      0.89
  205                339.52      0.96      0.34
  207                248.56      0.71      0.19
  209                175.30      1.12      0.73
  211                625.67      1.77      1.06
  213                164.22      0.47      0.09
  215                 90.73      0.26      0.03
  217               -258.93      0.73      0.21
  219               -258.97      0.73      0.21
  221                258.97      1.65      1.50
  223                 22.41      0.06      0.00
  225                 46.77      0.13      0.01
  229               4928.92      3.50      1.43
  231               4651.07      3.30      1.28
  233               4747.88      3.37      1.55
  235                107.22      0.30      0.04
  237                467.07      1.32      0.62
  238                323.23      0.92      0.31
  239                -44.61      0.13      0.01
  240                323.23      0.92      0.31
  241                323.23      0.92      0.31
  243                321.99      0.51      0.08
  245                310.83      0.50      0.07
  247                258.16      0.41      0.05
  249                126.33      0.20      0.01
  251                 59.09      0.12      0.01
  257                 32.60      0.09      0.00
  261                 32.74      0.21      0.03
  263                 23.57      0.07      0.00
  269                 -1.24      0.00      0.00
  271                 82.61      0.53      0.18
  273               -106.17      0.30      0.04
  275                -59.83      0.17      0.01
  277                  6.21      0.02      0.00
  281                -66.04      0.27      0.04
  283               -110.13      0.31      0.04
  285                 27.84      0.08      0.00
  287               -194.52      0.79      0.30
  289                447.08      1.83      1.39
  291                 77.96      0.32      0.05
  293                116.84      0.75      0.34
  295                -82.29      0.23      0.02
  297                499.45      3.19      5.05
  299                239.97      1.53      1.30
  301                239.97      1.53      1.30
  303                259.48      1.66      1.50
  305                152.02      0.43      0.08
  307                411.50      1.17      0.49
  309                215.92      1.38      1.07
  311               -125.18      0.36      0.05
  313                487.45      1.38      0.67
  315              -1914.45      1.36      0.29
  317                115.99      0.74      0.34
  319                 -8.77      0.02      0.00
  321               7623.82      3.46      1.08
  323               -160.60      0.46      0.09
  325                138.22      0.88      0.47
  329              13167.94      5.98      3.01
  330                  0.00      0.00      0.00
  333                 -0.00      0.00      0.00
  10                   0.00      0.00      0.00  Pump
  335              13167.94      0.00    -93.35  Pump
   
   
  Node Results at 0:05:00 hrs:
  --------------------------------------------------------
                     Demand      Head  Pressure  Chemical
  Node                  gpm        ft       psi      mg/L
  --------------------------------------------------------
  10                   0.00    144.61     -1.03      0.00
  15                 596.36    127.51     41.38      0.00
  20                   0.00    158.07     12.59      0.00
  35                1601.44    145.20     57.50      0.00
  40                   0.00    145.02      5.69      0.00
  50                   0.00    139.85     10.12      0.00
  60                   0.00    209.00     90.56      0.00
  601                  0.00    302.37    131.01      0.00
  61                   0.00    302.37    131.01      0.00
  101                271.63    144.61     44.46      0.00
  103                190.48    144.58     44.02      0.00
  105                193.58    145.99     50.91      0.00
  107                 78.14    145.98     53.72      0.00
  109                330.90    144.59     53.85      0.00
  111                202.97    145.35     58.65      0.00
  113                 28.61    145.42     62.14      0.00
  115                 74.50    146.14     57.26      0.00
  117                168.33    149.34     58.81      0.00
  119                251.87    157.20     67.25      0.00
  120                  0.00    154.65     67.01      0.00
  121                 59.53    160.75     70.52      0.00
  123                  0.00    165.21     66.82      0.00
  125                 65.21    160.22     64.66      0.00
  127                 25.25    158.71     44.51      0.00
  129                  0.00    158.70     46.67      0.00
  131                 61.13    158.68     66.16      0.00
  139                  8.42    153.12     52.91      0.00
  141                 14.09    149.17     62.90      0.00
  143                  8.87    139.08     62.21      0.00
  145                 39.51    150.26     64.68      0.00
  147                 12.23    151.11     57.46      0.00
  149                 38.71    151.47     58.70      0.00
  151                206.61    155.09     52.69      0.00
  153                 63.16    155.19     38.56      0.00
  157                 74.06    154.70     61.36      0.00
  159                 59.09    151.27     62.95      0.00
  161                 22.59    148.95     62.80      0.00
  163                 13.47    148.48     62.17      0.00
  164                  0.00    148.48     62.17      0.00
  166                  3.72    148.48     65.20      0.00
  167                 20.82    146.57     65.68      0.00
  169                  0.00    146.57     65.68      0.00
  171                 56.26    145.47     64.77      0.00
  173                  0.00    145.45     64.75      0.00
  177                 83.18    145.20     59.45      0.00
  179                  0.00    145.19     59.44      0.00
  181                  0.00    145.20     59.45      0.00
  183                  0.00    145.19     58.14      0.00
  184                  0.00    143.74     55.35      0.00
  185                 36.68    144.38     55.63      0.00
  187                  0.00    145.09     57.45      0.00
  189                154.33    145.45     61.29      0.00
  191                117.12    145.32     52.13      0.00
  193                101.97    145.43     55.21      0.00
  195                  0.00    145.50     56.33      0.00
  197                 24.37    145.32     53.00      0.00
  199                170.63    139.70     61.40      0.00
  201                 63.79    138.89     60.14      0.00
  203               4747.88    138.71     59.24      0.00
  204                  0.00    144.84     53.66      0.00
  205                 93.46    139.67     51.42      0.00
  206                  0.00    138.77     59.70      0.00
  207                 99.23    138.92     56.30      0.00
  208                  0.00    138.60     53.12      0.00
  209                  1.24    138.31     60.80      0.00
  211                 12.40    138.21     56.85      0.00
  213                 19.93    138.14     56.82      0.00
  215                131.83    137.92     56.73      0.00
  217                 34.63    137.90     57.15      0.00
  219                 59.09    137.88     58.01      0.00
  225                 32.60    137.89     56.28      0.00
  229                 91.78    138.07     55.27      0.00
  231                 23.57    138.06     57.66      0.00
  237                 22.32    138.21     53.82      0.00
  239                 63.79    138.22     54.26      0.00
  241                  0.00    138.22     54.26      0.00
  243                  6.21    138.22     53.83      0.00
  247                100.64    138.24     52.10      0.00
  249                  0.00    138.24     52.10      0.00
  251                 34.55    138.27     46.91      0.00
  253                 77.96    138.57     44.44      0.00
  255                 57.76    138.63     48.37      0.00
  257                  0.00    151.39     58.23      0.00
  259                  0.00    150.94     54.57      0.00
  261                  0.00    149.29     64.69      0.00
  263                  0.00    149.11     64.61      0.00
  265                  0.00    147.18     63.77      0.00
  267                  0.00    145.49     53.94      0.00
  269                  0.00    145.88     63.21      0.00
  271                  0.00    145.28     60.35      0.00
  273                  0.00    139.67     57.05      0.00
  275                  0.00    138.92     55.86      0.00
  River           -13166.43    220.00      0.00      0.00  Reservoir
  Lake                 0.00    167.00      0.00      0.00  Reservoir
  1                  209.05    145.02      5.69      0.00  Tank
  2                 -435.55    139.85     10.12      0.00  Tank
  3                 2088.45    158.07     12.59      0.00  Tank
   
   
  Link Results at 0:05:00 hrs:
  ----------------------------------------------
                       Flow  Velocity  Headloss
  Link                  gpm       fps   /1000ft
  ----------------------------------------------
  20               -2088.45      0.09      0.00
  40                -209.05      0.01      0.00
  50                 435.55      0.02      0.00
  60               13166.43      9.34      8.94
  101                  0.00      0.00      0.00
  103                162.74      0.26      0.02
  105               -434.37      1.23      0.54
  107                 23.97      0.07      0.00
  109                -27.74      0.04      0.00
  111               -358.64      1.02      0.38
  112                494.69      1.40      0.69
  113               -114.25      0.32      0.05
  114                120.17      0.77      0.36
  115                -54.16      0.35      0.08
  116                -22.70      0.06      0.00
  117                651.92      1.85      1.15
  119               -743.53      2.11      1.46
  120               1188.40      3.37      3.49
  121               1063.97      3.02      2.84
  122                375.37      2.40      2.98
  123               9966.43      4.52      1.78
  125              13166.43      5.98      2.97
  129               2765.10      1.96      0.57
  131               2480.15      1.76      0.47
  133              -2088.45      2.13      0.82
  135                366.44      0.26      0.01
  137                 61.13      0.10      0.00
  145                305.31      1.95      2.03
  147                296.89      1.89      1.93
  149               -605.23      3.86      7.21
  151               -596.36      3.81      7.01
  153                322.42      0.91      0.31
  155                361.94      1.03      0.39
  159               -374.16      1.06      0.41
  161               -412.87      2.64      3.55
  163               -156.58      0.44      0.08
  169                219.74      1.40      1.10
  171                462.90      1.31      0.61
  173               8063.26      3.66      1.20
  175               7989.20      3.63      1.18
  177               7930.12      3.60      1.16
  179               7648.41      3.47      1.09
  180                  3.72      0.01      0.00
  181                  3.72      0.01      0.00
  183               7415.25      3.37      1.03
  185                -20.82      0.13      0.01
  186                340.35      2.17      2.48
  187               6768.62      3.07      0.87
  189               4939.08      2.24      0.48
  191              -1773.28      1.26      0.25
  193              -1601.44      1.14      0.21
  195                310.22      0.88      0.29
  197                227.04      0.64      0.16
  199                 17.98      0.05      0.00
  201               -209.05      0.59      0.14
  202                570.67      3.64      6.46
  203                267.00      1.70      1.58
  204                570.67      1.62      0.90
  205                340.35      0.97      0.34
  207                249.02      0.71      0.19
  209                175.48      1.12      0.73
  211                625.81      1.78      1.06
  213                164.87      0.47      0.09
  215                 91.39      0.26      0.03
  217               -259.02      0.73      0.21
  219               -259.11      0.74      0.21
  221                259.11      1.65      1.50
  223                 22.97      0.07      0.00
  225                 47.33      0.13      0.01
  229               4939.08      3.50      1.44
  231               4659.52      3.30      1.29
  233               4747.88      3.37      1.55
  235                108.94      0.31      0.04
  237                469.79      1.33      0.63
  238                334.76      0.95      0.33
  239                -35.81      0.10      0.01
  240                334.76      0.95      0.33
  241                334.76      0.95      0.33
  243                333.51      0.53      0.08
  245                310.97      0.50      0.07
  247                258.16      0.41      0.05
  249                126.33      0.20      0.01
  251                 59.09      0.12      0.01
  257                 32.60      0.09      0.00
  261                 32.88      0.21      0.03
  263                 23.57      0.07      0.00
  269                 10.15      0.03      0.00
  271                 82.47      0.53      0.18
  273                -94.64      0.27      0.03
  275                -55.52      0.16      0.01
  277                  6.21      0.02      0.00
  281                -61.72      0.25      0.04
  283               -102.92      0.29      0.04
  285                 24.86      0.07      0.00
  287               -187.23      0.76      0.28
  289                435.55      1.78      1.32
  291                 77.96      0.32      0.05
  293                112.61      0.72      0.32
  295                -78.06      0.22      0.02
  297                499.81      3.19      5.06
  299                240.14      1.53      1.30
  301                240.14      1.53      1.30
  303                259.67      1.66      1.50
  305                152.11      0.43      0.08
  307                411.78      1.17      0.49
  309                215.98      1.38      1.07
  311               -124.59      0.35      0.05
  313                487.43      1.38      0.67
  315              -1911.66      1.36      0.29
  317                116.35      0.74      0.34
  319                 -7.41      0.02      0.00
  321               7631.22      3.46      1.08
  323               -152.15      0.43      0.08
  325                138.38      0.88      0.47
  329              13166.43      5.98      3.01
  330                  0.00      0.00      0.00
  333                 -0.00      0.00      0.00
  10                   0.00      0.00      0.00  Pump
  335              13166.43      0.00    -93.37  Pump
   
   
  Node Results at 0:10:00 hrs:
  --------------------------------------------------------
                     Demand      Head  Pressure  Chemical
  Node                  gpm        ft       psi      mg/L
  --------------------------------------------------------
  10                   0.00    144.64     -1.02      0.00
  15                 596.36    127.56     41.40      0.00
  20                   0.00    158.13     12.62      0.00
  35                1601.44    145.22     57.51      0.00
  40                   0.00    145.05      5.70      0.00
  50                   0.00    139.70     10.05      0.00
  60                   0.00    209.00     90.56      0.00
  601                  0.00    302.38    131.02      0.00
  61                   0.00    302.38    131.02      0.00
  101                271.63    144.64     44.47      0.00
  103                190.48    144.61     44.03      0.00
  105                193.58    146.01     50.92      0.00
  107                 78.14    146.01     53.73      0.00
  109                330.90    144.61     53.86      0.00
  111                202.97    145.37     58.66      0.00
  113                 28.61    145.44     62.15      0.00
  115                 74.50    146.17     57.27      0.00
  117                168.33    149.37     58.83      0.00
  119                251.87    157.24     67.27      0.00
  120                  0.00    154.69     67.03      0.00
  121                 59.53    160.80     70.54      0.00
  123                  0.00    165.26     66.84      0.00
  125                 65.21    160.27     64.68      0.00
  127                 25.25    158.77     44.53      0.00
  129                  0.00    158.76     46.69      0.00
  131                 61.13    158.74     66.18      0.00
  139                  8.42    153.17     52.94      0.00
  141                 14.09    149.22     62.92      0.00
  143                  8.87    139.13     62.23      0.00
  145                 39.51    150.31     64.70      0.00
  147                 12.23    151.16     57.48      0.00
  149                 38.71    151.52     58.72      0.00
  151                206.61    155.14     52.71      0.00
  153                 63.16    155.23     38.58      0.00
  157                 74.06    154.74     61.37      0.00
  159                 59.09    151.30     62.96      0.00
  161                 22.59    148.97     62.82      0.00
  163                 13.47    148.50     62.18      0.00
  164                  0.00    148.50     62.18      0.00
  166                  3.72    148.50     65.21      0.00
  167                 20.82    146.59     65.69      0.00
  169                  0.00    146.59     65.69      0.00
  171                 56.26    145.49     64.77      0.00
  173                  0.00    145.47     64.76      0.00
  177                 83.18    145.22     59.46      0.00
  179                  0.00    145.21     59.45      0.00
  181                  0.00    145.23     59.46      0.00
  183                  0.00    145.21     58.15      0.00
  184                  0.00    143.75     55.36      0.00
  185                 36.68    144.40     55.64      0.00
  187                  0.00    145.11     57.46      0.00
  189                154.33    145.47     61.30      0.00
  191                117.12    145.34     52.14      0.00
  193                101.97    145.45     55.22      0.00
  195                  0.00    145.52     56.34      0.00
  197                 24.37    145.34     53.01      0.00
  199                170.63    139.70     61.40      0.00
  201                 63.79    138.89     60.14      0.00
  203               4747.88    138.70     59.23      0.00
  204                  0.00    144.86     53.67      0.00
  205                 93.46    139.67     51.42      0.00
  206                  0.00    138.75     59.69      0.00
  207                 99.23    138.91     56.29      0.00
  208                  0.00    138.57     53.11      0.00
  209                  1.24    138.26     60.77      0.00
  211                 12.40    138.15     56.83      0.00
  213                 19.93    138.08     56.80      0.00
  215                131.83    137.86     56.70      0.00
  217                 34.63    137.84     57.13      0.00
  219                 59.09    137.83     57.99      0.00
  225                 32.60    137.84     56.26      0.00
  229                 91.78    138.01     55.25      0.00
  231                 23.57    138.00     57.63      0.00
  237                 22.32    138.15     53.79      0.00
  239                 63.79    138.16     54.23      0.00
  241                  0.00    138.16     54.23      0.00
  243                  6.21    138.16     53.80      0.00
  247                100.64    138.18     52.07      0.00
  249                  0.00    138.18     52.07      0.00
  251                 34.55    138.21     46.89      0.00
  253                 77.96    138.47     44.40      0.00
  255                 57.76    138.53     48.33      0.00
  257                  0.00    151.42     58.25      0.00
  259                  0.00    150.97     54.58      0.00
  261                  0.00    149.32     64.70      0.00
  263                  0.00    149.14     64.62      0.00
  265                  0.00    147.20     63.78      0.00
  267                  0.00    145.51     53.95      0.00
  269                  0.00    145.91     63.22      0.00
  271                  0.00    145.30     60.36      0.00
  273                  0.00    139.67     57.05      0.00
  275                  0.00    138.91     55.86      0.00
  River           -13164.92    220.00      0.00      0.00  Reservoir
  Lake                 0.00    167.00      0.00      0.00  Reservoir
  1                  206.37    145.05      5.70      0.00  Tank
  2                 -424.29    139.70     10.05      0.00  Tank
  3                 2078.36    158.13     12.62      0.00  Tank
   
   
  Link Results at 0:10:00 hrs:
  ----------------------------------------------
                       Flow  Velocity  Headloss
  Link                  gpm       fps   /1000ft
  ----------------------------------------------
  20               -2078.36      0.09      0.00
  40                -206.37      0.01      0.00
  50                 424.29      0.02      0.00
  60               13164.92      9.34      8.94
  101                  0.00      0.00      0.00
  103                163.01      0.26      0.02
  105               -434.64      1.23      0.54
  107                 24.14      0.07      0.00
  109                -27.46      0.04      0.00
  111               -358.36      1.02      0.38
  112                495.31      1.41      0.69
  113               -113.91      0.32      0.05
  114                120.37      0.77      0.36
  115                -53.99      0.34      0.08
  116                -22.15      0.06      0.00
  117                652.36      1.85      1.15
  119               -744.18      2.11      1.47
  120               1189.21      3.37      3.49
  121               1064.71      3.02      2.85
  122                375.66      2.40      2.98
  123               9974.40      4.53      1.78
  125              13164.92      5.98      2.97
  129               2755.33      1.95      0.57
  131               2470.25      1.75      0.46
  133              -2078.36      2.12      0.82
  135                366.64      0.26      0.01
  137                 61.13      0.10      0.00
  145                305.50      1.95      2.03
  147                297.08      1.90      1.93
  149               -605.23      3.86      7.21
  151               -596.36      3.81      7.01
  153                322.23      0.91      0.31
  155                361.74      1.03      0.39
  159               -373.97      1.06      0.41
  161               -412.68      2.63      3.55
  163               -156.71      0.44      0.08
  169                219.88      1.40      1.11
  171                462.57      1.31      0.61
  173               8070.75      3.66      1.20
  175               7996.69      3.63      1.18
  177               7937.60      3.60      1.17
  179               7655.76      3.47      1.09
  180                  3.72      0.01      0.00
  181                  3.72      0.01      0.00
  183               7422.54      3.37      1.03
  185                -20.82      0.13      0.01
  186                341.17      2.18      2.49
  187               6775.76      3.08      0.87
  189               4949.02      2.25      0.49
  191              -1770.49      1.26      0.25
  193              -1601.44      1.14      0.21
  195                307.59      0.87      0.29
  197                224.41      0.64      0.16
  199                 18.03      0.05      0.00
  201               -206.37      0.59      0.14
  202                572.00      3.65      6.49
  203                267.52      1.71      1.59
  204                572.00      1.62      0.90
  205                341.17      0.97      0.35
  207                249.48      0.71      0.19
  209                175.65      1.12      0.73
  211                625.96      1.78      1.06
  213                165.51      0.47      0.09
  215                 92.05      0.26      0.03
  217               -259.11      0.74      0.21
  219               -259.25      0.74      0.21
  221                259.25      1.65      1.50
  223                 23.52      0.07      0.00
  225                 47.88      0.14      0.01
  229               4949.02      3.51      1.44
  231               4667.96      3.31      1.29
  233               4747.88      3.37      1.55
  235                110.43      0.31      0.04
  237                472.27      1.34      0.63
  238                346.03      0.98      0.36
  239                -27.01      0.08      0.00
  240                346.03      0.98      0.36
  241                346.03      0.98      0.36
  243                344.78      0.55      0.09
  245                311.37      0.50      0.07
  247                258.16      0.41      0.05
  249                126.33      0.20      0.01
  251                 59.09      0.12      0.01
  257                 32.60      0.09      0.00
  261                 33.28      0.21      0.03
  263                 23.57      0.07      0.00
  269                 21.02      0.06      0.00
  271                 82.07      0.52      0.18
  273                -83.37      0.24      0.03
  275                -51.30      0.15      0.01
  277                  6.21      0.02      0.00
  281                -57.50      0.23      0.03
  283                -95.87      0.27      0.03
  285                 21.95      0.06      0.00
  287               -180.09      0.74      0.26
  289                424.29      1.73      1.26
  291                 77.96      0.32      0.05
  293                108.47      0.69      0.30
  295                -73.92      0.21      0.02
  297                500.16      3.19      5.06
  299                240.31      1.53      1.30
  301                240.31      1.53      1.30
  303                259.85      1.66      1.51
  305                152.21      0.43      0.08
  307                412.06      1.17      0.49
  309                216.04      1.38      1.07
  311               -123.99      0.35      0.05
  313                487.42      1.38      0.67
  315              -1909.03      1.35      0.29
  317                116.70      0.74      0.34
  319                 -6.27      0.02      0.00
  321               7638.57      3.47      1.09
  323               -143.71      0.41      0.07
  325                138.54      0.88      0.47
  329              13164.92      5.98      3.01
  330                  0.00      0.00      0.00
  333                 -0.00      0.00      0.00
  10                   0.00      0.00      0.00  Pump
  335              13164.92      0.00    -93.38  Pump
   
   
  Node Results at 0:15:00 hrs:
  --------------------------------------------------------
                     Demand      Head  Pressure  Chemical
  Node                  gpm        ft       psi      mg/L
  --------------------------------------------------------
  10                   0.00    144.66     -1.01      0.00
  15                 596.36    127.61     41.43      0.00
  20                   0.00    158.20     12.65      0.00
  35                1601.44    145.24     57.52      0.00
  40                   0.00    145.07      5.71      0.00
  50                   0.00    139.56      9.99      0.00
  60                   0.00    209.00     90.56      0.00
  601                  0.00    302.40    131.03      0.00
  61                   0.00    302.40    131.03      0.00
  101                271.63    144.66     44.48      0.00
  103                190.48    144.63     44.04      0.00
  105                193.58    146.04     50.93      0.00
  107                 78.14    146.04     53.74      0.00
  109                330.90    144.64     53.87      0.00
  111                202.97    145.39     58.67      0.00
  113                 28.61    145.47     62.16      0.00
  115                 74.50    146.19     57.28      0.00
  117                168.33    149.40     58.84      0.00
  119                251.87    157.28     67.28      0.00
  120                  0.00    154.73     67.04      0.00
  121                 59.53    160.84     70.56      0.00
  123                  0.00    165.30     66.86      0.00
  125                 65.21    160.32     64.70      0.00
  127                 25.25    158.83     44.56      0.00
  129                  0.00    158.82     46.72      0.00
  131                 61.13    158.80     66.21      0.00
  139                  8.42    153.23     52.96      0.00
  141                 14.09    149.27     62.94      0.00
  143                  8.87    139.18     62.26      0.00
  145                 39.51    150.36     64.72      0.00
  147                 12.23    151.21     57.50      0.00
  149                 38.71    151.57     58.74      0.00
  151                206.61    155.18     52.72      0.00
  153                 63.16    155.28     38.60      0.00
  157                 74.06    154.78     61.39      0.00
  159                 59.09    151.33     62.97      0.00
  161                 22.59    149.00     62.83      0.00
  163                 13.47    148.53     62.19      0.00
  164                  0.00    148.53     62.19      0.00
  166                  3.72    148.53     65.22      0.00
  167                 20.82    146.61     65.69      0.00
  169                  0.00    146.62     65.69      0.00
  171                 56.26    145.51     64.78      0.00
  173                  0.00    145.48     64.77      0.00
  177                 83.18    145.24     59.46      0.00
  179                  0.00    145.23     59.46      0.00
  181                  0.00    145.25     59.47      0.00
  183                  0.00    145.23     58.16      0.00
  184                  0.00    143.77     55.36      0.00
  185                 36.68    144.42     55.64      0.00
  187                  0.00    145.13     57.47      0.00
  189                154.33    145.49     61.31      0.00
  191                117.12    145.36     52.15      0.00
  193                101.97    145.47     55.23      0.00
  195                  0.00    145.55     56.35      0.00
  197                 24.37    145.37     53.02      0.00
  199                170.63    139.70     61.40      0.00
  201                 63.79    138.88     60.14      0.00
  203               4747.88    138.70     59.23      0.00
  204                  0.00    144.88     53.68      0.00
  205                 93.46    139.67     51.42      0.00
  206                  0.00    138.74     59.68      0.00
  207                 99.23    138.91     56.29      0.00
  208                  0.00    138.54     53.10      0.00
  209                  1.24    138.21     60.75      0.00
  211                 12.40    138.10     56.81      0.00
  213                 19.93    138.03     56.77      0.00
  215                131.83    137.81     56.68      0.00
  217                 34.63    137.79     57.10      0.00
  219                 59.09    137.78     57.96      0.00
  225                 32.60    137.78     56.23      0.00
  229                 91.78    137.95     55.23      0.00
  231                 23.57    137.95     57.61      0.00
  237                 22.32    138.09     53.77      0.00
  239                 63.79    138.10     54.21      0.00
  241                  0.00    138.10     54.21      0.00
  243                  6.21    138.10     53.77      0.00
  247                100.64    138.11     52.05      0.00
  249                  0.00    138.11     52.05      0.00
  251                 34.55    138.14     46.86      0.00
  253                 77.96    138.39     44.36      0.00
  255                 57.76    138.45     48.29      0.00
  257                  0.00    151.46     58.26      0.00
  259                  0.00    151.00     54.60      0.00
  261                  0.00    149.35     64.71      0.00
  263                  0.00    149.17     64.64      0.00
  265                  0.00    147.22     63.79      0.00
  267                  0.00    145.53     53.96      0.00
  269                  0.00    145.93     63.23      0.00
  271                  0.00    145.32     60.37      0.00
  273                  0.00    139.67     57.05      0.00
  275                  0.00    138.90     55.85      0.00
  River           -13163.41    220.00      0.00      0.00  Reservoir
  Lake                 0.00    167.00      0.00      0.00  Reservoir
  1                  203.86    145.07      5.71      0.00  Tank
  2                 -413.25    139.56      9.99      0.00  Tank
  3                 2068.32    158.20     12.65      0.00  Tank
   
   
  Link Results at 0:15:00 hrs:
  ----------------------------------------------
                       Flow  Velocity  Headloss
  Link                  gpm       fps   /1000ft
  ----------------------------------------------
  20               -2068.32      0.09      0.00
  40                -203.86      0.01      0.00
  50                 413.25      0.02      0.00
  60               13163.41      9.34      8.93
  101                  0.00      0.00      0.00
  103                163.29      0.26      0.02
  105               -434.92      1.23      0.54
  107                 24.31      0.07      0.00
  109                -27.19      0.04      0.00
  111               -358.09      1.02      0.38
  112                495.93      1.41      0.69
  113               -113.57      0.32      0.05
  114                120.58      0.77      0.36
  115                -53.82      0.34      0.08
  116                -21.60      0.06      0.00
  117                652.80      1.85      1.15
  119               -744.83      2.11      1.47
  120               1190.02      3.38      3.50
  121               1065.46      3.02      2.85
  122                375.94      2.40      2.98
  123               9982.32      4.53      1.78
  125              13163.41      5.97      2.97
  129               2745.63      1.95      0.56
  131               2460.41      1.74      0.46
  133              -2068.32      2.11      0.81
  135                366.83      0.26      0.01
  137                 61.13      0.10      0.00
  145                305.70      1.95      2.03
  147                297.28      1.90      1.93
  149               -605.23      3.86      7.21
  151               -596.36      3.81      7.01
  153                322.04      0.91      0.31
  155                361.55      1.03      0.39
  159               -373.77      1.06      0.41
  161               -412.48      2.63      3.54
  163               -156.85      0.44      0.08
  169                220.01      1.40      1.11
  171                462.24      1.31      0.61
  173               8078.19      3.67      1.20
  175               8004.13      3.63      1.18
  177               7945.04      3.61      1.17
  179               7663.06      3.48      1.09
  180                  3.72      0.01      0.00
  181                  3.72      0.01      0.00
  183               7429.78      3.37      1.03
  185                -20.82      0.13      0.01
  186                341.97      2.18      2.50
  187               6782.85      3.08      0.87
  189               4958.76      2.25      0.49
  191              -1767.84      1.25      0.25
  193              -1601.44      1.14      0.21
  195                305.10      0.87      0.28
  197                221.92      0.63      0.16
  199                 18.06      0.05      0.00
  201               -203.86      0.58      0.13
  202                573.30      3.66      6.52
  203                268.02      1.71      1.59
  204                573.30      1.63      0.90
  205                341.97      0.97      0.35
  207                249.96      0.71      0.19
  209                175.82      1.12      0.73
  211                626.11      1.78      1.06
  213                166.14      0.47      0.09
  215                 92.70      0.26      0.03
  217               -259.20      0.74      0.21
  219               -259.38      0.74      0.21
  221                259.38      1.66      1.50
  223                 24.06      0.07      0.00
  225                 48.43      0.14      0.01
  229               4958.76      3.52      1.45
  231               4676.43      3.32      1.30
  233               4747.88      3.37      1.55
  235                111.70      0.32      0.04
  237                474.48      1.35      0.64
  238                357.07      1.01      0.38
  239                -18.19      0.05      0.00
  240                357.07      1.01      0.38
  241                357.07      1.01      0.38
  243                355.82      0.57      0.09
  245                311.96      0.50      0.07
  247                258.16      0.41      0.05
  249                126.33      0.20      0.01
  251                 59.09      0.12      0.01
  257                 32.60      0.09      0.00
  261                 33.87      0.22      0.03
  263                 23.57      0.07      0.00
  269                 31.46      0.09      0.00
  271                 81.47      0.52      0.18
  273                -72.33      0.21      0.02
  275                -47.16      0.13      0.01
  277                  6.21      0.02      0.00
  281                -53.37      0.22      0.03
  283                -88.96      0.25      0.03
  285                 19.10      0.05      0.00
  287               -173.11      0.71      0.24
  289                413.25      1.69      1.20
  291                 77.96      0.32      0.05
  293                104.42      0.67      0.28
  295                -69.87      0.20      0.02
  297                500.50      3.19      5.07
  299                240.47      1.53      1.30
  301                240.47      1.53      1.30
  303                260.03      1.66      1.51
  305                152.30      0.43      0.08
  307                412.33      1.17      0.49
  309                216.10      1.38      1.07
  311               -123.39      0.35      0.05
  313                487.40      1.38      0.67
  315              -1906.54      1.35      0.29
  317                117.06      0.75      0.34
  319                 -5.35      0.02      0.00
  321               7645.87      3.47      1.09
  323               -135.25      0.38      0.06
  325                138.70      0.89      0.47
  329              13163.41      5.97      3.01
  330                  0.00      0.00      0.00
  333                 -0.00      0.00      0.00
  10                   0.00      0.00      0.00  Pump
  335              13163.41      0.00    -93.39  Pump
   
   
  Node Results at 0:20:00 hrs:
  --------------------------------------------------------
                     Demand      Head  Pressure  Chemical
  Node                  gpm        ft       psi      mg/L
  --------------------------------------------------------
  10                   0.00    144.69     -1.00      0.00
  15                 596.36    127.65     41.45      0.00
  20                   0.00    158.26     12.68      0.00
  35                1601.44    145.26     57.52      0.00
  40                   0.00    145.10      5.72      0.00
  50                   0.00    139.41      9.93      0.00
  60                   0.00    209.00     90.56      0.00
  601                  0.00    302.41    131.04      0.00
  61                   0.00    302.41    131.04      0.00
  101                271.63    144.69     44.49      0.00
  103                190.48    144.66     44.05      0.00
  105                193.58    146.06     50.94      0.00
  107                 78.14    146.06     53.76      0.00
  109                330.90    144.66     53.88      0.00
  111                202.97    145.42     58.68      0.00
  113                 28.61    145.49     62.17      0.00
  115                 74.50    146.22     57.29      0.00
  117                168.33    149.43     58.85      0.00
  119                251.87    157.32     67.30      0.00
  120                  0.00    154.76     67.06      0.00
  121                 59.53    160.89     70.58      0.00
  123                  0.00    165.35     66.88      0.00
  125                 65.21    160.37     64.72      0.00
  127                 25.25    158.89     44.58      0.00
  129                  0.00    158.88     46.74      0.00
  131                 61.13    158.86     66.23      0.00
  139                  8.42    153.28     52.98      0.00
  141                 14.09    149.32     62.97      0.00
  143                  8.87    139.23     62.28      0.00
  145                 39.51    150.41     64.74      0.00
  147                 12.23    151.25     57.52      0.00
  149                 38.71    151.61     58.76      0.00
  151                206.61    155.22     52.74      0.00
  153                 63.16    155.32     38.62      0.00
  157                 74.06    154.81     61.40      0.00
  159                 59.09    151.36     62.99      0.00
  161                 22.59    149.02     62.84      0.00
  163                 13.47    148.55     62.20      0.00
  164                  0.00    148.55     62.20      0.00
  166                  3.72    148.55     65.23      0.00
  167                 20.82    146.64     65.70      0.00
  169                  0.00    146.64     65.70      0.00
  171                 56.26    145.53     64.79      0.00
  173                  0.00    145.50     64.78      0.00
  177                 83.18    145.26     59.47      0.00
  179                  0.00    145.25     59.47      0.00
  181                  0.00    145.27     59.48      0.00
  183                  0.00    145.25     58.17      0.00
  184                  0.00    143.78     55.37      0.00
  185                 36.68    144.44     55.65      0.00
  187                  0.00    145.15     57.48      0.00
  189                154.33    145.52     61.32      0.00
  191                117.12    145.39     52.16      0.00
  193                101.97    145.49     55.24      0.00
  195                  0.00    145.57     56.36      0.00
  197                 24.37    145.39     53.03      0.00
  199                170.63    139.70     61.40      0.00
  201                 63.79    138.88     60.13      0.00
  203               4747.88    138.69     59.23      0.00
  204                  0.00    144.90     53.69      0.00
  205                 93.46    139.67     51.42      0.00
  206                  0.00    138.72     59.67      0.00
  207                 99.23    138.90     56.28      0.00
  208                  0.00    138.52     53.09      0.00
  209                  1.24    138.16     60.73      0.00
  211                 12.40    138.05     56.78      0.00
  213                 19.93    137.97     56.75      0.00
  215                131.83    137.76     56.66      0.00
  217                 34.63    137.73     57.08      0.00
  219                 59.09    137.72     57.94      0.00
  225                 32.60    137.73     56.21      0.00
  229                 91.78    137.90     55.20      0.00
  231                 23.57    137.89     57.58      0.00
  237                 22.32    138.03     53.74      0.00
  239                 63.79    138.04     54.18      0.00
  241                  0.00    138.04     54.18      0.00
  243                  6.21    138.04     53.75      0.00
  247                100.64    138.05     52.02      0.00
  249                  0.00    138.05     52.02      0.00
  251                 34.55    138.07     46.83      0.00
  253                 77.96    138.30     44.33      0.00
  255                 57.76    138.36     48.25      0.00
  257                  0.00    151.49     58.27      0.00
  259                  0.00    151.03     54.61      0.00
  261                  0.00    149.38     64.72      0.00
  263                  0.00    149.20     64.65      0.00
  265                  0.00    147.25     63.80      0.00
  267                  0.00    145.55     53.97      0.00
  269                  0.00    145.95     63.24      0.00
  271                  0.00    145.34     60.38      0.00
  273                  0.00    139.67     57.05      0.00
  275                  0.00    138.90     55.85      0.00
  River           -13161.91    220.00      0.00      0.00  Reservoir
  Lake                 0.00    167.00      0.00      0.00  Reservoir
  1                  201.50    145.10      5.72      0.00  Tank
  2                 -402.41    139.41      9.93      0.00  Tank
  3                 2058.34    158.26     12.68      0.00  Tank
   
   
  Link Results at 0:20:00 hrs:
  ----------------------------------------------
                       Flow  Velocity  Headloss
  Link                  gpm       fps   /1000ft
  ----------------------------------------------
  20               -2058.34      0.09      0.00
  40                -201.50      0.01      0.00
  50                 402.41      0.02      0.00
  60               13161.91      9.33      8.93
  101                  0.00      0.00      0.00
  103                163.56      0.26      0.02
  105               -435.19      1.23      0.54
  107                 24.48      0.07      0.00
  109                -26.92      0.04      0.00
  111               -357.82      1.02      0.38
  112                496.54      1.41      0.69
  113               -113.22      0.32      0.04
  114                120.78      0.77      0.36
  115                -53.66      0.34      0.08
  116                -21.06      0.06      0.00
  117                653.24      1.85      1.15
  119               -745.48      2.11      1.47
  120               1190.83      3.38      3.50
  121               1066.20      3.02      2.85
  122                376.22      2.40      2.99
  123               9990.19      4.53      1.78
  125              13161.91      5.97      2.97
  129               2735.98      1.94      0.56
  131               2450.62      1.74      0.46
  133              -2058.34      2.10      0.80
  135                367.02      0.26      0.01
  137                 61.13      0.10      0.00
  145                305.89      1.95      2.04
  147                297.47      1.90      1.93
  149               -605.23      3.86      7.21
  151               -596.36      3.81      7.01
  153                321.84      0.91      0.31
  155                361.35      1.03      0.38
  159               -373.58      1.06      0.41
  161               -412.29      2.63      3.54
  163               -156.98      0.45      0.08
  169                220.15      1.41      1.11
  171                461.91      1.31      0.61
  173               8085.58      3.67      1.21
  175               8011.52      3.64      1.19
  177               7952.43      3.61      1.17
  179               7670.32      3.48      1.09
  180                  3.72      0.01      0.00
  181                  3.72      0.01      0.00
  183               7436.97      3.38      1.03
  185                -20.82      0.13      0.01
  186                342.75      2.19      2.51
  187               6789.89      3.08      0.87
  189               4968.32      2.26      0.49
  191              -1765.32      1.25      0.25
  193              -1601.44      1.14      0.21
  195                302.74      0.86      0.28
  197                219.56      0.62      0.15
  199                 18.05      0.05      0.00
  201               -201.50      0.57      0.13
  202                574.57      3.67      6.55
  203                268.50      1.71      1.60
  204                574.57      1.63      0.91
  205                342.75      0.97      0.35
  207                250.44      0.71      0.20
  209                175.99      1.12      0.73
  211                626.26      1.78      1.07
  213                166.76      0.47      0.09
  215                 93.37      0.26      0.03
  217               -259.29      0.74      0.21
  219               -259.52      0.74      0.21
  221                259.52      1.66      1.50
  223                 24.60      0.07      0.00
  225                 48.96      0.14      0.01
  229               4968.32      3.52      1.45
  231               4684.95      3.32      1.30
  233               4747.88      3.37      1.55
  235                112.75      0.32      0.04
  237                476.44      1.35      0.64
  238                367.90      1.04      0.40
  239                 -9.31      0.03      0.00
  240                367.90      1.04      0.40
  241                367.90      1.04      0.40
  243                366.66      0.59      0.10
  245                312.72      0.50      0.07
  247                258.16      0.41      0.05
  249                126.33      0.20      0.01
  251                 59.09      0.12      0.01
  257                 32.60      0.09      0.00
  261                 34.62      0.22      0.04
  263                 23.57      0.07      0.00
  269                 41.54      0.12      0.01
  271                 80.72      0.52      0.17
  273                -61.50      0.17      0.01
  275                -43.10      0.12      0.01
  277                  6.21      0.02      0.00
  281                -49.31      0.20      0.02
  283                -82.19      0.23      0.02
  285                 16.30      0.05      0.00
  287               -166.25      0.68      0.22
  289                402.41      1.64      1.14
  291                 77.96      0.32      0.05
  293                100.44      0.64      0.26
  295                -65.89      0.19      0.02
  297                500.85      3.20      5.08
  299                240.64      1.54      1.31
  301                240.64      1.54      1.31
  303                260.21      1.66      1.51
  305                152.39      0.43      0.08
  307                412.61      1.17      0.49
  309                216.16      1.38      1.07
  311               -122.79      0.35      0.05
  313                487.39      1.38      0.67
  315              -1904.18      1.35      0.29
  317                117.41      0.75      0.35
  319                 -4.67      0.01      0.00
  321               7653.13      3.47      1.09
  323               -126.73      0.36      0.06
  325                138.87      0.89      0.47
  329              13161.91      5.97      3.01
  330                  0.00      0.00      0.00
  333                 -0.00      0.00      0.00
  10                   0.00      0.00      0.00  Pump
  335              13161.91      0.00    -93.41  Pump
   
   
  Node Results at 0:25:00 hrs:
  --------------------------------------------------------
                     Demand      Head  Pressure  Chemical
  Node                  gpm        ft       psi      mg/L
  --------------------------------------------------------
  10                   0.00    144.71     -0.99      0.00
  15                 596.36    127.70     41.47      0.00
  20                   0.00    158.33     12.71      0.00
  35                1601.44    145.28     57.53      0.00
  40                   0.00    145.12      5.73      0.00
  50                   0.00    139.28      9.87      0.00
  60                   0.00    209.01     90.56      0.00
  601                  0.00    302.43    131.04      0.00
  61                   0.00    302.43    131.04      0.00
  101                271.63    144.71     44.50      0.00
  103                190.48    144.68     44.06      0.00
  105                193.58    146.09     50.95      0.00
  107                 78.14    146.09     53.77      0.00
  109                330.90    144.68     53.90      0.00
  111                202.97    145.44     58.69      0.00
  113                 28.61    145.51     62.18      0.00
  115                 74.50    146.24     57.30      0.00
  117                168.33    149.46     58.87      0.00
  119                251.87    157.36     67.32      0.00
  120                  0.00    154.80     67.07      0.00
  121                 59.53    160.93     70.60      0.00
  123                  0.00    165.39     66.90      0.00
  125                 65.21    160.42     64.74      0.00
  127                 25.25    158.95     44.61      0.00
  129                  0.00    158.94     46.77      0.00
  131                 61.13    158.92     66.26      0.00
  139                  8.42    153.33     53.01      0.00
  141                 14.09    149.36     62.99      0.00
  143                  8.87    139.27     62.30      0.00
  145                 39.51    150.45     64.76      0.00
  147                 12.23    151.30     57.54      0.00
  149                 38.71    151.66     58.78      0.00
  151                206.61    155.27     52.76      0.00
  153                 63.16    155.36     38.63      0.00
  157                 74.06    154.85     61.42      0.00
  159                 59.09    151.39     63.00      0.00
  161                 22.59    149.05     62.85      0.00
  163                 13.47    148.58     62.21      0.00
  164                  0.00    148.58     62.21      0.00
  166                  3.72    148.58     65.25      0.00
  167                 20.82    146.66     65.71      0.00
  169                  0.00    146.66     65.71      0.00
  171                 56.26    145.55     64.80      0.00
  173                  0.00    145.52     64.79      0.00
  177                 83.18    145.28     59.48      0.00
  179                  0.00    145.27     59.48      0.00
  181                  0.00    145.29     59.49      0.00
  183                  0.00    145.27     58.18      0.00
  184                  0.00    143.80     55.38      0.00
  185                 36.68    144.45     55.66      0.00
  187                  0.00    145.17     57.49      0.00
  189                154.33    145.54     61.33      0.00
  191                117.12    145.41     52.17      0.00
  193                101.97    145.52     55.25      0.00
  195                  0.00    145.59     56.37      0.00
  197                 24.37    145.41     53.04      0.00
  199                170.63    139.70     61.40      0.00
  201                 63.79    138.88     60.13      0.00
  203               4747.88    138.69     59.23      0.00
  204                  0.00    144.92     53.69      0.00
  205                 93.46    139.67     51.42      0.00
[...]
  219                 75.20    137.98     58.05      0.00
  225                 41.50    137.99     56.32      0.00
  229                116.81    138.20     55.33      0.00
  231                 29.99    138.19     57.71      0.00
  237                 28.41    138.37     53.89      0.00
  239                 81.19    138.37     54.32      0.00
  241                  0.00    138.37     54.32      0.00
  243                  7.90    138.37     53.89      0.00
  247                128.09    138.38     52.16      0.00
  249                  0.00    138.38     52.16      0.00
  251                 43.97    138.39     46.97      0.00
  253                 99.23    138.56     44.44      0.00
  255                 73.51    138.65     48.38      0.00
  257                  0.00    150.80     57.98      0.00
  259                  0.00    150.32     54.30      0.00
  261                  0.00    148.58     64.38      0.00
  263                  0.00    148.39     64.30      0.00
  265                  0.00    147.96     64.11      0.00
  267                  0.00    146.10     54.20      0.00
  269                  0.00    146.70     63.57      0.00
  271                  0.00    146.34     60.81      0.00
  273                  0.00    141.13     57.68      0.00
  275                  0.00    140.50     56.55      0.00
  River           -13217.71    220.00      0.00      0.00  Reservoir
  Lake                 0.00    167.00      0.00      0.00  Reservoir
  1                 -694.29    147.83      6.90      0.00  Tank
  2                 -425.18    139.82     10.11      0.00  Tank
  3                  612.03    159.85     13.37      0.00  Tank
   
   
  Link Results at 23:55:00 hrs:
  ----------------------------------------------
                       Flow  Velocity  Headloss
  Link                  gpm       fps   /1000ft
  ----------------------------------------------
  20                -612.03      0.03      0.00
  40                 694.29      0.03      0.00
  50                 425.18      0.02      0.00
  60               13217.71      9.37      9.00
  101                  0.00      0.00      0.00
  103                116.58      0.19      0.01
  105               -462.29      1.31      0.61
  107                -23.73      0.07      0.00
  109               -125.84      0.20      0.01
  111               -546.99      1.55      0.83
  112                419.01      1.19      0.51
  113               -235.08      0.67      0.17
  114                 74.20      0.47      0.15
  115               -123.17      0.79      0.38
  116               -197.30      0.56      0.13
  117                684.94      1.94      1.26
  119               -711.21      2.02      1.35
  120               1236.32      3.51      3.75
  121               1095.23      3.11      3.00
  122                374.06      2.39      2.96
  123               9607.89      4.36      1.66
  125              11328.47      5.14      2.25
  129               1270.76      0.90      0.13
  131                976.21      0.69      0.08
  133               -612.03      0.63      0.08
  135                332.04      0.24      0.01
  137                 77.81      0.12      0.01
  145                254.23      1.62      1.45
  147                243.51      1.55      1.33
  149               -373.24      2.38      2.94
  151               -361.96      2.31      2.78
  153                147.66      0.42      0.07
  155                197.95      0.56      0.13
  159               -213.51      0.61      0.15
  161               -262.78      1.68      1.54
  163               -131.17      0.37      0.06
  169                211.56      1.35      1.03
  171                394.56      1.12      0.45
  173               7656.45      3.48      1.09
  175               7562.20      3.43      1.07
  177               7486.99      3.40      1.05
  179               7183.67      3.26      0.97
  180                  4.73      0.01      0.00
  181                  4.73      0.01      0.00
  183               6933.92      3.15      0.91
  185                -26.50      0.17      0.02
  186                245.85      1.57      1.36
  187               6264.16      2.84      0.75
  189               4703.34      2.13      0.44
  191              -1489.22      1.06      0.18
  193              -1801.95      1.28      0.26
  195               -206.74      0.59      0.14
  197               -312.61      0.89      0.29
  199                381.68      1.08      0.43
  201                694.29      1.97      1.29
  202                519.91      3.32      5.44
  203                320.75      2.05      2.22
  204                519.91      1.47      0.75
  205                245.85      0.70      0.19
  207                -60.93      0.17      0.01
  209                255.43      1.63      1.46
  211                643.26      1.82      1.12
  213                 -9.58      0.03      0.00
  215               -146.36      0.42      0.07
  217               -321.72      0.91      0.31
  219               -274.56      0.78      0.23
  221                274.56      1.75      1.67
  223               -182.24      0.52      0.11
  225               -151.23      0.43      0.08
  229               4703.34      3.34      1.31
  231               4298.96      3.05      1.11
  233               4124.44      2.93      1.19
  235                187.22      0.53      0.11
  237                483.26      1.37      0.66
  238                555.22      1.58      0.85
  239                198.25      0.56      0.13
  240                555.22      1.58      0.85
  241                555.22      1.58      0.85
  243                553.63      0.88      0.21
  245                407.86      0.65      0.12
  247                328.56      0.52      0.08
  249                160.78      0.26      0.02
  251                 75.20      0.16      0.01
  257                 41.50      0.12      0.01
  261                 53.93      0.34      0.08
  263                 29.99      0.09      0.00
  269                129.99      0.37      0.06
  271                 92.88      0.59      0.22
  273                  8.71      0.02      0.00
  275                -22.30      0.06      0.00
  277                  7.90      0.02      0.00
  281                -30.20      0.12      0.01
  283                -50.18      0.14      0.01
  285                 -1.67      0.00      0.00
  287               -156.62      0.64      0.20
  289                425.18      1.74      1.26
  291                 99.23      0.41      0.09
  293                 95.82      0.61      0.24
  295                -51.85      0.15      0.01
  297                515.14      3.29      5.35
  299                247.81      1.58      1.38
  301                247.81      1.58      1.38
  303                267.33      1.71      1.59
  305                169.80      0.48      0.10
  307                437.13      1.24      0.55
  309                227.88      1.45      1.18
  311               -374.24      1.06      0.41
  313                537.27      1.52      0.80
  315              -1595.21      1.13      0.21
  317                104.92      0.67      0.28
  319                 82.30      0.23      0.02
  321               7161.80      3.25      0.96
  323                 93.33      0.26      0.03
  325                105.99      0.68      0.29
  329              13217.71      6.00      3.04
  330                  0.00      0.00      0.00
  333                 -0.00      0.00      0.00
  10                   0.00      0.00      0.00  Pump
  335              13217.71      0.00    -92.92  Pump
   
   
  Node Results at 24:00:00 hrs:
  --------------------------------------------------------
                     Demand      Head  Pressure  Chemical
  Node                  gpm        ft       psi      mg/L
  --------------------------------------------------------
  10                   0.00    146.97     -0.01      0.00
  15                 596.36    129.48     42.24      0.00
  20                   0.00    159.87     13.38      0.00
  35                1601.44    147.69     58.58      0.00
  40                   0.00    147.75      6.87      0.00
  50                   0.00    139.68     10.04      0.00
  60                   0.00    209.10     90.60      0.00
  601                  0.00    303.04    131.31      0.00
  61                   0.00    303.04    131.31      0.00
  101                271.63    146.97     45.48      0.00
  103                190.48    146.95     45.04      0.00
  105                193.58    148.32     51.92      0.00
  107                 78.14    148.32     54.73      0.00
  109                330.90    146.95     54.88      0.00
  111                202.97    147.73     59.68      0.00
  113                 28.61    147.81     63.18      0.00
  115                 74.50    148.49     58.28      0.00
  117                168.33    151.59     59.79      0.00
  119                251.87    159.27     68.14      0.00
  120                  0.00    156.78     67.93      0.00
  121                 59.53    162.73     71.38      0.00
  123                  0.00    167.15     67.66      0.00
  125                 65.21    162.17     65.50      0.00
  127                 25.25    160.57     45.31      0.00
  129                  0.00    160.56     47.47      0.00
  131                 61.13    160.53     66.96      0.00
  139                  8.42    155.04     53.75      0.00
  141                 14.09    151.15     63.76      0.00
  143                  8.87    141.06     63.07      0.00
  145                 39.51    152.25     65.54      0.00
  147                 12.23    153.11     58.33      0.00
  149                 38.71    153.47     59.57      0.00
  151                206.61    157.13     53.57      0.00
  153                 63.16    157.22     39.44      0.00
  157                 74.06    156.85     62.29      0.00
  159                 59.09    153.52     63.92      0.00
  161                 22.59    151.26     63.81      0.00
  163                 13.47    150.81     63.18      0.00
  164                  0.00    150.81     63.18      0.00
  166                  3.72    150.81     66.21      0.00
  167                 20.82    148.96     66.71      0.00
  169                  0.00    148.96     66.71      0.00
  171                 56.26    147.89     65.81      0.00
  173                  0.00    147.86     65.80      0.00
  177                 83.18    147.69     60.53      0.00
  179                  0.00    147.69     60.53      0.00
  181                  0.00    147.69     60.53      0.00
  183                  0.00    147.69     59.23      0.00
  184                  0.00    146.09     56.37      0.00
  185                 36.68    146.78     56.67      0.00
  187                  0.00    147.49     58.49      0.00
  189                154.33    147.88     62.34      0.00
  191                117.12    147.71     53.17      0.00
  193                101.97    147.82     56.25      0.00
  195                  0.00    147.90     57.37      0.00
  197                 24.37    147.71     54.04      0.00
  199                170.63    141.79     62.30      0.00
  201                 63.79    140.93     61.02      0.00
  203               4747.88    140.75     60.12      0.00
  204                  0.00    147.24     54.70      0.00
  205                 93.46    141.75     52.32      0.00
  206                  0.00    140.55     60.47      0.00
  207                 99.23    140.88     57.14      0.00
  208                  0.00    140.18     53.81      0.00
  209                  1.24    139.54     61.33      0.00
  211                 12.40    139.33     57.34      0.00
  213                 19.93    139.24     57.30      0.00
  215                131.83    139.03     57.21      0.00
  217                 34.63    139.00     57.63      0.00
  219                 59.09    138.99     58.49      0.00
  225                 32.60    139.00     56.76      0.00
  229                 91.78    139.06     55.71      0.00
  231                 23.57    139.06     58.09      0.00
  237                 22.32    139.14     54.22      0.00
  239                 63.79    139.13     54.65      0.00
  241                  0.00    139.13     54.65      0.00
  243                  6.21    139.13     54.22      0.00
  247                100.64    139.13     52.49      0.00
  249                  0.00    139.13     52.49      0.00
  251                 34.55    139.13     47.29      0.00
  253                 77.96    139.14     44.69      0.00
  255                 57.76    139.20     48.62      0.00
  257                  0.00    153.60     59.19      0.00
  259                  0.00    153.15     55.53      0.00
  261                  0.00    151.54     65.66      0.00
  263                  0.00    151.37     65.59      0.00
  265                  0.00    149.55     64.80      0.00
  267                  0.00    147.90     54.99      0.00
  269                  0.00    148.30     64.26      0.00
  271                  0.00    147.75     61.42      0.00
  273                  0.00    141.75     57.95      0.00
  275                  0.00    140.93     56.73      0.00
  River           -13101.01    220.00      0.00      0.00  Reservoir
  Lake                 0.00    167.00      0.00      0.00  Reservoir
  1                 -115.25    147.75      6.87      0.00  Tank
  2                 -260.91    139.68     10.04      0.00  Tank
  3                 2172.68    159.87     13.38      0.00  Tank
   
   
  Link Results at 24:00:00 hrs:
  ----------------------------------------------
                       Flow  Velocity  Headloss
  Link                  gpm       fps   /1000ft
  ----------------------------------------------
  20               -2172.68      0.09      0.00
  40                 115.25      0.00      0.00
  50                 260.91      0.01      0.00
  60               13101.01      9.29      8.86
  101                  0.00      0.00      0.00
  103                157.75      0.25      0.02
  105               -429.38      1.22      0.53
  107                 20.87      0.06      0.00
  109                -32.73      0.05      0.00
  111               -363.63      1.03      0.39
  112                483.46      1.37      0.66
  113               -121.49      0.34      0.05
  114                116.30      0.74      0.34
  115                -57.27      0.37      0.09
  116                -33.80      0.10      0.00
  117                643.82      1.83      1.12
  119               -731.53      2.08      1.42
  120               1173.37      3.33      3.41
  121               1050.29      2.98      2.78
  122                370.31      2.36      2.90
  123               9825.91      4.46      1.73
  125              13101.01      5.95      2.95
  129               2845.26      2.02      0.60
  131               2562.31      1.82      0.49
  133              -2172.68      2.22      0.89
  135                364.37      0.26      0.01
  137                 61.13      0.10      0.00
  145                303.24      1.94      2.00
  147                294.81      1.88      1.90
  149               -605.23      3.86      7.21
  151               -596.36      3.81      7.01
  153                324.50      0.92      0.32
  155                364.01      1.03      0.39
  159               -376.23      1.07      0.41
  161               -414.94      2.65      3.58
  163               -154.58      0.44      0.08
  169                217.75      1.39      1.09
  171                466.97      1.32      0.62
  173               7933.70      3.60      1.16
  175               7859.64      3.57      1.14
  177               7800.55      3.54      1.13
  179               7522.07      3.41      1.05
  180                  3.72      0.01      0.00
  181                  3.72      0.01      0.00
  183               7292.08      3.31      1.00
  185                -20.82      0.13      0.01
  186                343.00      2.19      2.52
  187               6659.95      3.02      0.84
  189               5092.99      2.31      0.51
  191              -1510.71      1.07      0.19
  193              -1601.44      1.14      0.21
  195                 41.07      0.12      0.01
  197                -42.11      0.12      0.01
  199                 73.13      0.21      0.02
  201                115.25      0.33      0.05
  202                591.41      3.77      6.91
  203                285.09      1.82      1.79
  204                591.41      1.68      0.96
  205                343.00      0.97      0.35
  207                211.96      0.60      0.14
  209                182.35      1.16      0.78
  211                611.31      1.73      1.02
  213                160.65      0.46      0.09
  215                 69.13      0.20      0.02
  217               -263.79      0.75      0.21
  219               -255.89      0.73      0.20
  221                255.89      1.63      1.46
  223                 13.98      0.04      0.00
  225                 38.34      0.11      0.01
  229               5092.99      3.61      1.52
  231               4792.44      3.40      1.36
  233               4747.88      3.37      1.55
  235                129.92      0.37      0.06
  237                507.08      1.44      0.72
  238                509.41      1.45      0.73
  239                101.55      0.29      0.04
  240                509.41      1.45      0.73
  241                509.41      1.45      0.73
  243                508.16      0.81      0.18
  245                332.62      0.53      0.08
  247                258.16      0.41      0.05
  249                126.33      0.20      0.01
  251                 59.09      0.12      0.01
  257                 32.60      0.09      0.00
  261                 54.53      0.35      0.08
  263                 23.57      0.07      0.00
  269                163.14      0.46      0.09
  271                 60.81      0.39      0.10
  273                 80.01      0.23      0.02
  275                  9.99      0.03      0.00
  277                  6.21      0.02      0.00
  281                  3.79      0.02      0.00
  283                  6.22      0.02      0.00
  285                -19.82      0.06      0.00
  287                -77.04      0.31      0.05
  289                260.91      1.07      0.51
  291                 77.96      0.32      0.05
  293                 48.15      0.31      0.07
  295                -13.60      0.04      0.00
  297                493.39      3.15      4.94
  299                237.06      1.51      1.27
  301                237.06      1.51      1.27
  303                256.33      1.64      1.47
  305                150.43      0.43      0.08
  307                406.76      1.15      0.48
  309                212.80      1.36      1.04
  311               -143.68      0.41      0.07
  313                479.51      1.36      0.65
  315              -1642.51      1.16      0.22
  317                120.79      0.77      0.36
  319                  9.13      0.03      0.00
  321               7504.88      3.41      1.05
  323                -19.24      0.05      0.00
  325                131.80      0.84      0.43
  329              13101.01      5.95      2.99
  330                  0.00      0.00      0.00
  333                 -0.00      0.00      0.00
  10                   0.00      0.00      0.00  Pump
  335              13101.01      0.00    -93.94  Pump
   
  Analysis ended Wed May 06 17:21:30 2020
