  Page 1                                    Wed May 06 17:22:07 2020

  ******************************************************************
  *                           E P A N E T                          *
  *                   Hydraulic and Water Quality                  *
  *                   Analysis for Pipe Networks                   *
  *                         Version 2.00.12                        *
  ******************************************************************
  
  Analysis begun Wed May 06 17:22:07 2020

   
  Hydraulic Status:
  -----------------------------------------------------------------------
     0:00:00: Balanced after 5 trials
     0:00:00: Reservoir River is emptying
     0:00:00: Reservoir Lake is closed
     0:00:00: Tank 1 is filling at 13.10 ft
     0:00:00: Tank 2 is emptying at 23.50 ft
     0:00:00: Tank 3 is filling at 29.00 ft
   
     0:05:00: Balanced after 2 trials
   
     0:10:00: Balanced after 2 trials
   
     0:15:00: Balanced after 2 trials
   
     0:20:00: Balanced after 2 trials
   
     0:25:00: Balanced after 2 trials
   
     0:30:00: Balanced after 2 trials
   
     0:35:00: Balanced after 2 trials
   
     0:40:00: Balanced after 2 trials
   
     0:45:00: Balanced after 2 trials
   
     0:50:00: Balanced after 2 trials
   
     0:55:00: Balanced after 1 trials
   
     1:00:00: Pump 10 changed by timer control
     1:00:00: Balanced after 7 trials
     1:00:00: Reservoir Lake is emptying
     1:00:00: Pump 10 changed from closed to open
   
     1:05:00: Balanced after 2 trials
   
     1:10:00: Balanced after 2 trials
   
     1:15:00: Balanced after 2 trials
   
     1:20:00: Balanced after 2 trials
   
     1:25:00: Balanced after 2 trials
   
     1:30:00: Balanced after 2 trials
   
     1:35:00: Balanced after 2 trials
   
     1:40:00: Balanced after 2 trials
   
     1:45:00: Balanced after 2 trials
   
     1:50:00: Balanced after 2 trials
   
     1:55:00: Balanced after 2 trials
   
     2:00:00: Balanced after 4 trials
   
     2:05:00: Balanced after 1 trials
   
     2:10:00: Balanced after 1 trials
   
     2:15:00: Balanced after 1 trials
   
     2:20:00: Balanced after 1 trials
   
     2:25:00: Balanced after 1 trials
   
     2:30:00: Balanced after 1 trials
   
     2:35:00: Balanced after 1 trials
   
     2:40:00: Balanced after 1 trials
     2:40:00: Tank 2 is filling at 20.91 ft
   
     2:45:00: Balanced after 1 trials
   
     2:50:00: Balanced after 1 trials
   
     2:55:00: Balanced after 1 trials
   
     3:00:00: Balanced after 3 trials
   
     3:05:00: Balanced after 1 trials
   
     3:10:00: Balanced after 1 trials
   
     3:15:00: Balanced after 1 trials
   
     3:20:00: Balanced after 1 trials
   
     3:25:00: Balanced after 1 trials
   
     3:30:00: Balanced after 1 trials
   
     3:35:00: Balanced after 1 trials
   
     3:40:00: Balanced after 1 trials
   
     3:45:00: Balanced after 1 trials
   
     3:50:00: Balanced after 1 trials
   
     3:55:00: Balanced after 1 trials
   
     4:00:00: Balanced after 3 trials
   
     4:05:00: Balanced after 1 trials
   
     4:10:00: Balanced after 1 trials
   
     4:15:00: Balanced after 1 trials
   
     4:20:00: Balanced after 1 trials
   
     4:22:47: Pump 335 changed by Tank 1 control
     4:22:47: Pipe 330 changed by Tank 1 control
     4:22:47: Balanced after 4 trials
     4:22:47: Pipe 330 changed from closed to open
     4:22:47: Pump 335 changed from open to closed
   
     4:25:00: Balanced after 1 trials
   
     4:30:00: Balanced after 2 trials
   
     4:35:00: Balanced after 2 trials
   
     4:40:00: Balanced after 2 trials
   
     4:45:00: Balanced after 2 trials
   
     4:50:00: Balanced after 2 trials
   
     4:55:00: Balanced after 2 trials
   
     5:00:00: Balanced after 3 trials
     5:00:00: Tank 3 is emptying at 34.34 ft
   
     5:05:00: Balanced after 2 trials
   
     5:10:00: Balanced after 2 trials
   
     5:15:00: Balanced after 2 trials
   
     5:20:00: Balanced after 2 trials
   
     5:25:00: Balanced after 2 trials
   
     5:30:00: Balanced after 2 trials
   
     5:35:00: Balanced after 2 trials
   
     5:40:00: Balanced after 2 trials
   
     5:45:00: Balanced after 2 trials
   
     5:50:00: Balanced after 2 trials
   
     5:55:00: Balanced after 2 trials
   
     6:00:00: Balanced after 3 trials
     6:00:00: Tank 3 is filling at 34.22 ft
   
     6:05:00: Balanced after 2 trials
   
     6:10:00: Balanced after 2 trials
   
     6:15:00: Balanced after 2 trials
   
     6:20:00: Balanced after 2 trials
   
     6:25:00: Balanced after 2 trials
   
     6:30:00: Balanced after 2 trials
   
     6:35:00: Balanced after 2 trials
   
     6:40:00: Balanced after 2 trials
   
     6:45:00: Balanced after 2 trials
   
     6:50:00: Balanced after 1 trials
   
     6:55:00: Balanced after 1 trials
   
     7:00:00: Balanced after 4 trials
     7:00:00: Tank 1 is emptying at 21.41 ft
     7:00:00: Tank 2 is emptying at 26.20 ft
   
     7:05:00: Balanced after 2 trials
   
     7:10:00: Balanced after 2 trials
   
     7:15:00: Balanced after 2 trials
   
     7:20:00: Balanced after 2 trials
   
     7:25:00: Balanced after 2 trials
   
     7:30:00: Balanced after 2 trials
   
     7:35:00: Balanced after 1 trials
   
     7:40:00: Balanced after 1 trials
   
     7:45:00: Balanced after 1 trials
   
     7:50:00: Balanced after 1 trials
   
     7:55:00: Balanced after 1 trials
   
     8:00:00: Balanced after 3 trials
   
     8:05:00: Balanced after 2 trials
   
     8:10:00: Balanced after 2 trials
   
     8:15:00: Balanced after 2 trials
   
     8:20:00: Balanced after 2 trials
   
     8:25:00: Balanced after 2 trials
   
     8:30:00: Balanced after 2 trials
   
     8:35:00: Balanced after 2 trials
   
     8:40:00: Balanced after 2 trials
   
     8:45:00: Balanced after 2 trials
   
     8:50:00: Balanced after 2 trials
   
     8:55:00: Balanced after 2 trials
   
     9:00:00: Balanced after 4 trials
     9:00:00: Tank 1 is filling at 20.71 ft
     9:00:00: Tank 2 is filling at 25.82 ft
     9:00:00: Tank 3 is emptying at 35.03 ft
   
     9:05:00: Balanced after 2 trials
   
     9:10:00: Balanced after 2 trials
   
     9:15:00: Balanced after 2 trials
   
     9:20:00: Balanced after 2 trials
   
     9:25:00: Balanced after 2 trials
   
     9:30:00: Balanced after 2 trials
   
     9:35:00: Balanced after 2 trials
   
     9:40:00: Balanced after 2 trials
   
     9:45:00: Balanced after 2 trials
   
     9:50:00: Balanced after 2 trials
   
     9:55:00: Balanced after 2 trials
   
    10:00:00: Balanced after 4 trials
   
    10:05:00: Balanced after 2 trials
   
    10:10:00: Balanced after 2 trials
   
    10:15:00: Balanced after 2 trials
   
    10:20:00: Balanced after 2 trials
   
    10:25:00: Balanced after 2 trials
   
    10:30:00: Balanced after 2 trials
   
    10:35:00: Balanced after 2 trials
   
    10:40:00: Balanced after 2 trials
   
    10:45:00: Balanced after 2 trials
   
    10:50:00: Balanced after 2 trials
   
    10:55:00: Balanced after 2 trials
   
    11:00:00: Balanced after 4 trials
    11:00:00: Tank 1 is emptying at 21.65 ft
    11:00:00: Tank 2 is emptying at 27.01 ft
   
    11:05:00: Balanced after 1 trials
   
    11:10:00: Balanced after 1 trials
   
    11:15:00: Balanced after 1 trials
   
    11:20:00: Balanced after 1 trials
   
    11:25:00: Balanced after 1 trials
   
    11:30:00: Balanced after 1 trials
   
    11:35:00: Balanced after 1 trials
   
    11:40:00: Balanced after 1 trials
   
    11:45:00: Balanced after 1 trials
   
    11:50:00: Balanced after 1 trials
   
    11:55:00: Balanced after 1 trials
   
    12:00:00: Balanced after 3 trials
    12:00:00: Tank 1 is filling at 21.52 ft
    12:00:00: Tank 2 is filling at 26.99 ft
   
    12:05:00: Balanced after 2 trials
   
    12:10:00: Balanced after 2 trials
   
    12:15:00: Balanced after 2 trials
   
    12:20:00: Balanced after 2 trials
   
    12:25:00: Balanced after 2 trials
   
    12:30:00: Balanced after 2 trials
   
    12:35:00: Balanced after 2 trials
   
    12:40:00: Balanced after 2 trials
   
    12:45:00: Balanced after 2 trials
   
    12:50:00: Balanced after 2 trials
   
    12:55:00: Balanced after 2 trials
   
    13:00:00: Balanced after 3 trials
   
    13:05:00: Balanced after 2 trials
   
    13:10:00: Balanced after 2 trials
   
    13:15:00: Balanced after 2 trials
   
    13:20:00: Balanced after 2 trials
   
    13:25:00: Balanced after 1 trials
   
    13:30:00: Balanced after 1 trials
   
    13:35:00: Balanced after 1 trials
   
    13:40:00: Balanced after 1 trials
   
    13:45:00: Balanced after 1 trials
   
    13:50:00: Balanced after 1 trials
   
    13:55:00: Balanced after 1 trials
   
    14:00:00: Balanced after 3 trials
   
    14:05:00: Balanced after 2 trials
   
    14:10:00: Balanced after 2 trials
   
    14:15:00: Balanced after 2 trials
   
    14:20:00: Balanced after 2 trials
   
    14:25:00: Balanced after 2 trials
   
    14:30:00: Balanced after 2 trials
    14:30:00: Tank 1 is closed at 22.22 ft
   
    14:35:00: Balanced after 2 trials
    14:35:00: Tank 1 is emptying at 22.22 ft
   
    14:40:00: Balanced after 1 trials
   
    14:45:00: Balanced after 1 trials
   
    14:50:00: Balanced after 1 trials
   
    14:55:00: Balanced after 1 trials
   
    15:00:00: Pump 10 changed by timer control
    15:00:00: Balanced after 4 trials
    15:00:00: Reservoir Lake is closed
    15:00:00: Tank 2 is emptying at 28.40 ft
    15:00:00: Pump 10 changed from open to closed
   
    15:05:00: Balanced after 2 trials
   
    15:10:00: Balanced after 2 trials
   
    15:15:00: Balanced after 2 trials
   
    15:20:00: Balanced after 2 trials
   
    15:25:00: Balanced after 2 trials
   
    15:30:00: Balanced after 2 trials
   
    15:35:00: Balanced after 2 trials
   
    15:40:00: Balanced after 2 trials
   
    15:45:00: Balanced after 2 trials
   
    15:50:00: Balanced after 2 trials
   
    15:55:00: Balanced after 2 trials
   
    16:00:00: Balanced after 3 trials
   
    16:05:00: Balanced after 1 trials
   
    16:10:00: Balanced after 1 trials
   
    16:15:00: Balanced after 1 trials
   
    16:20:00: Balanced after 1 trials
   
    16:25:00: Balanced after 1 trials
   
    16:30:00: Balanced after 1 trials
   
    16:35:00: Balanced after 1 trials
   
    16:40:00: Balanced after 1 trials
   
    16:45:00: Balanced after 1 trials
   
    16:50:00: Balanced after 1 trials
   
    16:55:00: Balanced after 1 trials
   
    17:00:00: Balanced after 3 trials
   
    17:05:00: Balanced after 1 trials
   
    17:10:00: Balanced after 1 trials
   
    17:15:00: Balanced after 1 trials
   
    17:20:00: Balanced after 1 trials
   
    17:25:00: Balanced after 1 trials
   
    17:30:00: Balanced after 1 trials
   
    17:35:00: Balanced after 1 trials
   
    17:40:00: Balanced after 1 trials
   
    17:45:00: Balanced after 1 trials
   
    17:50:00: Balanced after 1 trials
   
    17:55:00: Balanced after 1 trials
   
    18:00:00: Balanced after 2 trials
   
    18:05:00: Balanced after 1 trials
   
    18:10:00: Balanced after 1 trials
   
    18:15:00: Balanced after 1 trials
   
    18:20:00: Balanced after 1 trials
   
    18:25:00: Balanced after 1 trials
   
    18:30:00: Balanced after 1 trials
   
    18:35:00: Balanced after 1 trials
   
    18:40:00: Balanced after 1 trials
   
    18:45:00: Balanced after 1 trials
   
    18:50:00: Balanced after 1 trials
   
    18:55:00: Balanced after 1 trials
   
    19:00:00: Balanced after 3 trials
    19:00:00: Tank 2 is filling at 26.54 ft
   
    19:05:00: Balanced after 2 trials
   
    19:10:00: Balanced after 2 trials
   
    19:15:00: Balanced after 2 trials
   
    19:20:00: Balanced after 2 trials
   
    19:25:00: Balanced after 2 trials
   
    19:30:00: Balanced after 2 trials
   
    19:35:00: Balanced after 1 trials
   
    19:40:00: Balanced after 1 trials
   
    19:45:00: Balanced after 1 trials
   
    19:50:00: Balanced after 1 trials
   
    19:55:00: Balanced after 1 trials
   
    20:00:00: Balanced after 3 trials
    20:00:00: Tank 2 is emptying at 26.76 ft
   
    20:05:00: Balanced after 1 trials
   
    20:10:00: Balanced after 1 trials
   
    20:15:00: Balanced after 1 trials
   
    20:20:00: Balanced after 1 trials
   
    20:25:00: Balanced after 1 trials
   
    20:30:00: Balanced after 1 trials
   
    20:35:00: Balanced after 1 trials
   
    20:40:00: Balanced after 1 trials
   
    20:45:00: Balanced after 1 trials
   
    20:50:00: Balanced after 1 trials
   
    20:55:00: Balanced after 1 trials
   
    20:58:58: Pump 335 changed by Tank 1 control
    20:58:58: Pipe 330 changed by Tank 1 control
    20:58:58: Balanced after 5 trials
    20:58:58: Tank 1 is filling at 17.10 ft
    20:58:58: Tank 3 is filling at 29.81 ft
    20:58:58: Pipe 330 changed from open to closed
    20:58:58: Pump 335 changed from closed to open
   
    21:00:00: Balanced after 3 trials
   
    21:05:00: Balanced after 2 trials
   
    21:10:00: Balanced after 2 trials
   
    21:15:00: Balanced after 2 trials
   
    21:20:00: Balanced after 2 trials
   
    21:25:00: Balanced after 2 trials
   
    21:30:00: Balanced after 2 trials
   
    21:35:00: Balanced after 2 trials
   
    21:40:00: Balanced after 2 trials
   
    21:45:00: Balanced after 2 trials
   
    21:50:00: Balanced after 2 trials
   
    21:55:00: Balanced after 2 trials
   
    22:00:00: Balanced after 3 trials
    22:00:00: Tank 1 is emptying at 17.19 ft
   
    22:05:00: Balanced after 2 trials
   
    22:10:00: Balanced after 2 trials
   
    22:15:00: Balanced after 2 trials
   
    22:20:00: Balanced after 2 trials
   
    22:25:00: Balanced after 2 trials
   
    22:30:00: Balanced after 2 trials
   
    22:35:00: Balanced after 2 trials
   
    22:40:00: Balanced after 2 trials
   
    22:45:00: Balanced after 2 trials
   
    22:50:00: Balanced after 2 trials
   
    22:55:00: Balanced after 2 trials
   
    23:00:00: Balanced after 4 trials
   
    23:05:00: Balanced after 2 trials
   
    23:10:00: Balanced after 2 trials
   
    23:15:00: Balanced after 2 trials
   
    23:20:00: Balanced after 2 trials
    23:20:00: Tank 3 is emptying at 31.21 ft
   
    23:25:00: Balanced after 2 trials
   
    23:30:00: Balanced after 2 trials
   
    23:35:00: Balanced after 2 trials
   
    23:40:00: Balanced after 2 trials
   
    23:45:00: Balanced after 2 trials
   
    23:50:00: Balanced after 2 trials
   
    23:55:00: Balanced after 2 trials
   
    24:00:00: Balanced after 4 trials
    24:00:00: Tank 1 is filling at 15.19 ft
    24:00:00: Tank 2 is filling at 21.56 ft
    24:00:00: Tank 3 is filling at 31.19 ft
   
   
  Node Results at 0:00:00 hrs:
  --------------------------------------------------------
                     Demand      Head  Pressure  Chemical
  Node                  gpm        ft       psi      mg/L
  --------------------------------------------------------
  10                   0.00    146.31     -0.30      0.00
  15                 573.42    130.22     42.56      0.00
  20                   0.00    158.00     12.57      0.00
  35                1518.12    146.85     58.21      0.00
  40                   0.00    145.00      5.68      0.00
  50                   0.00    140.00     10.18      0.00
  60                   0.00    209.03     90.57      0.00
  601                  0.00    302.61    131.12      0.00
  61                   0.00    302.61    131.12      0.00
  101                264.03    146.31     45.20      0.00
  103                185.15    146.28     44.75      0.00
  105                188.16    147.60     51.61      0.00
  107                 75.95    147.60     54.42      0.00
  109                321.65    146.29     54.59      0.00
  111                197.30    147.01     59.37      0.00
  113                 27.81    147.09     62.87      0.00
  115                 72.42    147.76     57.96      0.00
  117                163.62    150.75     59.43      0.00
  119                244.82    158.14     67.66      0.00
  120                  0.00    155.75     67.49      0.00
  121                 57.87    161.47     70.83      0.00
  123                  0.00    165.91     67.12      0.00
  125                 63.38    160.81     64.91      0.00
  127                 24.55    158.88     44.58      0.00
  129                  0.00    158.87     46.74      0.00
  131                 59.42    158.84     66.23      0.00
  139                  8.19    153.89     53.25      0.00
  141                 13.69    150.37     63.42      0.00
  143                  8.62    140.98     63.04      0.00
  145                 38.41    151.43     65.18      0.00
  147                 11.88    152.25     57.95      0.00
  149                 37.63    152.60     59.19      0.00
  151                200.83    156.09     53.12      0.00
  153                 61.40    156.18     38.99      0.00
  157                 71.99    155.82     61.84      0.00
  159                 57.43    152.62     63.53      0.00
  161                 21.96    150.45     63.46      0.00
  163                 13.09    150.01     62.83      0.00
  164                  0.00    150.01     62.83      0.00
  166                  3.61    150.01     65.87      0.00
  167                 20.24    148.24     66.40      0.00
  169                  0.00    148.24     66.40      0.00
  171                 54.68    147.23     65.53      0.00
  173                  0.00    147.21     65.52      0.00
  177                 80.86    146.81     60.14      0.00
  179                  0.00    146.77     60.13      0.00
  181                  0.00    146.85     60.16      0.00
  183                  0.00    146.77     58.83      0.00
  184                  0.00    145.75     56.22      0.00
  185                 35.65    146.23     56.43      0.00
  187                  0.00    146.80     58.19      0.00
  189                150.01    147.10     62.01      0.00
  191                113.84    146.99     52.86      0.00
  193                 99.12    147.09     55.94      0.00
  195                  0.00    147.16     57.05      0.00
  197                 23.69    146.99     53.73      0.00
  199                165.85    142.80     62.74      0.00
  201                 62.01    142.21     61.57      0.00
  203               3782.83    142.08     60.70      0.00
  204                  0.00    146.60     54.42      0.00
  205                 90.85    142.73     52.75      0.00
  206                  0.00    141.60     60.92      0.00
  207                 96.45    142.00     57.63      0.00
  208                  0.00    141.15     54.23      0.00
  209                  1.21    140.37     61.69      0.00
  211                 12.05    140.10     57.67      0.00
  213                 19.38    140.02     57.64      0.00
  215                128.14    139.81     57.55      0.00
  217                 33.67    139.79     57.97      0.00
  219                 57.43    139.78     58.83      0.00
  225                 31.69    139.78     57.10      0.00
  229                 89.21    139.75     56.00      0.00
  231                 22.91    139.74     58.38      0.00
  237                 21.70    139.79     54.51      0.00
  239                 62.01    139.75     54.92      0.00
  241                  0.00    139.75     54.92      0.00
  243                  6.03    139.75     54.49      0.00
  247                 97.83    139.75     52.75      0.00
  249                  0.00    139.75     52.75      0.00
  251                 33.58    139.75     47.55      0.00
  253                 75.78    139.70     44.93      0.00
  255                 56.14    139.76     48.86      0.00
  257                  0.00    152.68     58.79      0.00
  259                  0.00    152.25     55.14      0.00
  261                  0.00    150.70     65.30      0.00
  263                  0.00    150.54     65.23      0.00
  265                  0.00    148.80     64.48      0.00
  267                  0.00    147.15     54.66      0.00
  269                  0.00    147.55     63.93      0.00
  271                  0.00    146.95     61.08      0.00
  273                  0.00    142.74     58.38      0.00
  275                  0.00    142.19     57.28      0.00
  River           -13142.79    220.00      0.00      0.00  Reservoir
  Lake                 0.00    167.00      0.00      0.00  Reservoir
  1                  749.41    145.00      5.68      0.00  Tank
  2                 -180.96    140.00     10.18      0.00  Tank
  3                 2463.10    158.00     12.57      0.00  Tank
   
   
  Link Results at 0:00:00 hrs:
  ----------------------------------------------
                       Flow  Velocity  Headloss
  Link                  gpm       fps   /1000ft
  ----------------------------------------------
  20               -2463.10      0.10      0.00
  40                -749.41      0.03      0.00
  50                 180.96      0.01      0.00
  60               13142.79      9.32      8.91
  101                  0.00      0.00      0.00
  103                156.24      0.25      0.02
  105               -420.27      1.19      0.51
  107                 22.13      0.06      0.00
  109                -28.91      0.05      0.00
  111               -350.56      0.99      0.36
  112                476.38      1.35      0.64
  113               -111.73      0.32      0.04
  114                115.53      0.74      0.34
  115                -53.82      0.34      0.08
  116                -24.02      0.07      0.00
  117                630.57      1.79      1.08
  119               -718.15      2.04      1.37
  120               1149.77      3.26      3.28
  121               1028.96      2.92      2.67
  122                362.56      2.31      2.79
  123               9614.69      4.36      1.66
  125              13142.79      5.97      2.96
  129               3107.66      2.20      0.71
  131               2834.12      2.01      0.60
  133              -2463.10      2.52      1.12
  135                346.47      0.25      0.01
  137                 59.42      0.09      0.00
  145                287.05      1.83      1.81
  147                278.86      1.78      1.72
  149               -582.04      3.72      6.70
  151               -573.42      3.66      6.52
  153                316.87      0.90      0.30
  155                355.27      1.01      0.37
  159               -367.16      1.04      0.40
  161               -404.79      2.58      3.42
  163               -148.77      0.42      0.07
  169                210.16      1.34      1.02
  171                456.85      1.30      0.59
  173               7763.26      3.52      1.12
  175               7691.27      3.49      1.10
  177               7633.84      3.46      1.08
  179               7359.19      3.34      1.01
  180                  3.61      0.01      0.00
  181                  3.61      0.01      0.00
  183               7128.58      3.24      0.95
  185                -20.24      0.13      0.01
  186                305.81      1.95      2.04
  187               6478.45      2.94      0.80
  189               4279.78      1.94      0.37
  191              -2143.99      1.52      0.36
  193              -1518.12      1.08      0.19
  195                762.50      2.16      1.53
  197                681.64      1.93      1.25
  199                -67.77      0.19      0.02
  201               -749.41      2.13      1.49
  202                486.02      3.10      4.80
  203                215.86      1.38      1.07
  204                486.02      1.38      0.67
  205                305.81      0.87      0.28
  207                283.63      0.80      0.25
  209                157.75      1.01      0.60
  211                629.90      1.79      1.08
  213                148.06      0.42      0.07
  215                 98.13      0.28      0.03
  217               -245.32      0.70      0.19
  219               -252.69      0.72      0.20
  221                252.69      1.61      1.43
  223                 16.58      0.05      0.00
  225                 40.26      0.11      0.01
  229               4279.78      3.04      1.10
  231               3950.69      2.80      0.95
  233               3782.83      2.68      1.02
  235                163.23      0.46      0.09
  237                460.97      1.31      0.60
  238                567.80      1.61      0.89
  239                203.28      0.58      0.13
  240                567.80      1.61      0.89
  241                567.80      1.61      0.89
  243                566.59      0.90      0.22
  245                337.84      0.54      0.08
  247                250.94      0.40      0.05
  249                122.79      0.20      0.01
  251                 57.43      0.12      0.01
  257                 31.69      0.09      0.00
  261                 67.53      0.43      0.12
  263                 22.91      0.06      0.00
  269                216.70      0.61      0.15
  271                 44.59      0.28      0.06
  273                150.41      0.43      0.08
  275                 36.84      0.10      0.01
  277                  6.03      0.02      0.00
  281                 30.81      0.13      0.01
  283                 51.56      0.15      0.01
  285                -37.82      0.11      0.00
  287                -29.19      0.12      0.01
  289                180.96      0.74      0.26
  291                 75.78      0.31      0.05
  293                 19.84      0.13      0.01
  295                 13.74      0.04      0.00
  297                483.37      3.09      4.75
  299                232.24      1.48      1.22
  301                232.24      1.48      1.22
  303                251.13      1.60      1.41
  305                147.20      0.42      0.07
  307                398.32      1.13      0.46
  309                213.90      1.37      1.05
  311               -115.77      0.33      0.05
  313                493.27      1.40      0.68
  315              -2280.62      1.62      0.40
  317                 97.43      0.62      0.24
  319                 65.80      0.19      0.02
  321               7342.48      3.33      1.01
  323                105.86      0.30      0.04
  325                136.63      0.87      0.46
  329              13142.79      5.97      3.00
  330                  0.00      0.00      0.00
  333                 -0.00      0.00      0.00
  10                   0.00      0.00      0.00  Pump
  335              13142.79      0.00    -93.58  Pump
   
   
  Node Results at 0:05:00 hrs:
  --------------------------------------------------------
                     Demand      Head  Pressure  Chemical
  Node                  gpm        ft       psi      mg/L
  --------------------------------------------------------
  10                   0.00    146.37     -0.27      0.00
  15                 573.42    130.29     42.59      0.00
  20                   0.00    158.08     12.60      0.00
  35                1518.12    146.91     58.24      0.00
  40                   0.00    145.09      5.71      0.00
  50                   0.00    139.94     10.16      0.00
  60                   0.00    209.04     90.58      0.00
  601                  0.00    302.63    131.13      0.00
  61                   0.00    302.63    131.13      0.00
  101                264.03    146.37     45.22      0.00
  103                185.15    146.34     44.78      0.00
  105                188.16    147.66     51.63      0.00
  107                 75.95    147.66     54.45      0.00
  109                321.65    146.35     54.62      0.00
  111                197.30    147.07     59.39      0.00
  113                 27.81    147.15     62.89      0.00
  115                 72.42    147.82     57.98      0.00
  117                163.62    150.81     59.45      0.00
  119                244.82    158.21     67.69      0.00
  120                  0.00    155.81     67.51      0.00
  121                 57.87    161.53     70.86      0.00
  123                  0.00    165.98     67.15      0.00
  125                 63.38    160.88     64.94      0.00
  127                 24.55    158.95     44.61      0.00
  129                  0.00    158.94     46.77      0.00
  131                 59.42    158.92     66.26      0.00
  139                  8.19    153.96     53.28      0.00
  141                 13.69    150.44     63.45      0.00
  143                  8.62    141.05     63.07      0.00
  145                 38.41    151.50     65.21      0.00
  147                 11.88    152.32     57.98      0.00
  149                 37.63    152.67     59.22      0.00
  151                200.83    156.16     53.15      0.00
  153                 61.40    156.24     39.02      0.00
  157                 71.99    155.88     61.87      0.00
  159                 57.43    152.68     63.56      0.00
  161                 21.96    150.51     63.48      0.00
  163                 13.09    150.08     62.86      0.00
  164                  0.00    150.08     62.86      0.00
  166                  3.61    150.08     65.89      0.00
  167                 20.24    148.30     66.43      0.00
  169                  0.00    148.30     66.43      0.00
  171                 54.68    147.29     65.55      0.00
  173                  0.00    147.27     65.54      0.00
  177                 80.86    146.87     60.17      0.00
  179                  0.00    146.83     60.16      0.00
  181                  0.00    146.91     60.19      0.00
  183                  0.00    146.83     58.86      0.00
  184                  0.00    145.80     56.24      0.00
  185                 35.65    146.29     56.45      0.00
  187                  0.00    146.87     58.22      0.00
  189                150.01    147.16     62.03      0.00
  191                113.84    147.05     52.89      0.00
  193                 99.12    147.15     55.96      0.00
  195                  0.00    147.22     57.08      0.00
  197                 23.69    147.06     53.75      0.00
  199                165.85    142.85     62.76      0.00
  201                 62.01    142.25     61.59      0.00
  203               3782.83    142.13     60.72      0.00
  204                  0.00    146.66     54.45      0.00
  205                 90.85    142.77     52.76      0.00
  206                  0.00    141.63     60.93      0.00
  207                 96.45    142.04     57.65      0.00
  208                  0.00    141.16     54.23      0.00
  209                  1.21    140.36     61.68      0.00
  211                 12.05    140.09     57.67      0.00
  213                 19.38    140.00     57.63      0.00
  215                128.14    139.80     57.54      0.00
  217                 33.67    139.77     57.96      0.00
  219                 57.43    139.76     58.83      0.00
  225                 31.69    139.77     57.09      0.00
  229                 89.21    139.72     55.99      0.00
  231                 22.91    139.71     58.37      0.00
  237                 21.70    139.76     54.49      0.00
  239                 62.01    139.71     54.91      0.00
  241                  0.00    139.71     54.91      0.00
  243                  6.03    139.71     54.47      0.00
  247                 97.83    139.71     52.74      0.00
  249                  0.00    139.71     52.74      0.00
  251                 33.58    139.71     47.54      0.00
  253                 75.78    139.66     44.92      0.00
  255                 56.14    139.72     48.84      0.00
  257                  0.00    152.75     58.82      0.00
  259                  0.00    152.32     55.17      0.00
  261                  0.00    150.77     65.33      0.00
  263                  0.00    150.61     65.26      0.00
  265                  0.00    148.87     64.50      0.00
  267                  0.00    147.21     54.69      0.00
  269                  0.00    147.61     63.96      0.00
  271                  0.00    147.02     61.10      0.00
  273                  0.00    142.79     58.40      0.00
  275                  0.00    142.24     57.30      0.00
  River           -13140.56    220.00      0.00      0.00  Reservoir
  Lake                 0.00    167.00      0.00      0.00  Reservoir
  1                  743.56    145.09      5.71      0.00  Tank
  2                 -172.73    139.94     10.16      0.00  Tank
  3                 2458.49    158.08     12.60      0.00  Tank
   
   
  Link Results at 0:05:00 hrs:
  ----------------------------------------------
                       Flow  Velocity  Headloss
  Link                  gpm       fps   /1000ft
  ----------------------------------------------
  20               -2458.49      0.10      0.00
  40                -743.56      0.03      0.00
  50                 172.73      0.01      0.00
  60               13140.56      9.32      8.91
  101                  0.00      0.00      0.00
  103                156.31      0.25      0.02
  105               -420.34      1.19      0.51
  107                 22.18      0.06      0.00
  109                -28.84      0.05      0.00
  111               -350.49      0.99      0.36
  112                476.54      1.35      0.64
  113               -111.68      0.32      0.04
  114                115.58      0.74      0.34
  115                -53.77      0.34      0.08
  116                -23.91      0.07      0.00
  117                630.68      1.79      1.08
  119               -718.31      2.04      1.37
  120               1149.97      3.26      3.28
  121               1029.15      2.92      2.67
  122                362.64      2.31      2.79
  123               9616.86      4.36      1.66
  125              13140.56      5.96      2.96
  129               3103.19      2.20      0.71
  131               2829.60      2.01      0.59
  133              -2458.49      2.51      1.11
  135                346.56      0.25      0.01
  137                 59.42      0.09      0.00
  145                287.14      1.83      1.81
  147                278.95      1.78      1.72
  149               -582.04      3.72      6.70
  151               -573.42      3.66      6.52
  153                316.78      0.90      0.30
  155                355.18      1.01      0.37
  159               -367.07      1.04      0.40
  161               -404.69      2.58      3.42
  163               -148.81      0.42      0.07
  169                210.21      1.34      1.02
  171                456.71      1.30      0.59
  173               7765.37      3.52      1.12
  175               7693.38      3.49      1.10
  177               7635.95      3.47      1.08
  179               7361.28      3.34      1.01
  180                  3.61      0.01      0.00
  181                  3.61      0.01      0.00
  183               7130.71      3.24      0.96
  185                -20.24      0.13      0.01
  186                306.26      1.95      2.04
  187               6480.80      2.94      0.80
  189               4286.89      1.95      0.37
  191              -2139.23      1.52      0.35
  193              -1518.12      1.08      0.19
  195                757.74      2.15      1.52
  197                676.88      1.92      1.23
  199                -66.67      0.19      0.02
  201               -743.56      2.11      1.46
  202                487.15      3.11      4.82
  203                216.54      1.38      1.07
  204                487.15      1.38      0.67
  205                306.26      0.87      0.28
  207                283.21      0.80      0.25
  209                157.94      1.01      0.60
  211                629.68      1.79      1.08
  213                148.32      0.42      0.07
  215                 98.12      0.28      0.03
  217               -245.41      0.70      0.19
  219               -252.70      0.72      0.20
  221                252.70      1.61      1.43
  223                 16.75      0.05      0.00
  225                 40.43      0.11      0.01
  229               4286.89      3.04      1.10
  231               3955.69      2.81      0.95
  233               3782.83      2.68      1.02
  235                165.34      0.47      0.09
  237                464.12      1.32      0.61
  238                576.04      1.63      0.91
  239                208.37      0.59      0.14
  240                576.04      1.63      0.91
  241                576.04      1.63      0.91
  243                574.83      0.92      0.22
  245                339.60      0.54      0.08
  247                250.94      0.40      0.05
  249                122.79      0.20      0.01
  251                 57.43      0.12      0.01
  257                 31.69      0.09      0.00
  261                 69.29      0.44      0.13
  263                 22.91      0.06      0.00
  269                223.17      0.63      0.16
  271                 42.83      0.27      0.05
  273                158.65      0.45      0.08
  275                 39.93      0.11      0.01
  277                  6.03      0.02      0.00
  281                 33.90      0.14      0.01
  283                 56.71      0.16      0.01
  285                -39.94      0.11      0.01
  287                -23.99      0.10      0.01
  289                172.73      0.71      0.24
  291                 75.78      0.31      0.05
  293                 16.81      0.11      0.01
  295                 16.78      0.05      0.00
  297                483.45      3.09      4.75
  299                232.28      1.48      1.22
  301                232.28      1.48      1.22
  303                251.17      1.60      1.41
  305                147.22      0.42      0.07
  307                398.39      1.13      0.46
  309                213.86      1.37      1.05
  311               -115.74      0.33      0.05
  313                493.04      1.40      0.68
  315              -2275.86      1.61      0.40
  317                 97.52      0.62      0.25
  319                 67.82      0.19      0.02
  321               7344.57      3.33      1.01
  323                110.85      0.31      0.04
  325                136.63      0.87      0.46
  329              13140.56      5.96      3.00
  330                  0.00      0.00      0.00
  333                 -0.00      0.00      0.00
  10                   0.00      0.00      0.00  Pump
  335              13140.56      0.00    -93.60  Pump
   
   
  Node Results at 0:10:00 hrs:
  --------------------------------------------------------
                     Demand      Head  Pressure  Chemical
  Node                  gpm        ft       psi      mg/L
  --------------------------------------------------------
  10                   0.00    146.43     -0.25      0.00
  15                 573.42    130.36     42.62      0.00
  20                   0.00    158.16     12.63      0.00
  35                1518.12    146.97     58.27      0.00
  40                   0.00    145.18      5.75      0.00
  50                   0.00    139.88     10.13      0.00
  60                   0.00    209.04     90.58      0.00
  601                  0.00    302.66    131.14      0.00
  61                   0.00    302.66    131.14      0.00
  101                264.03    146.43     45.25      0.00
  103                185.15    146.41     44.81      0.00
  105                188.16    147.73     51.66      0.00
  107                 75.95    147.72     54.48      0.00
  109                321.65    146.41     54.64      0.00
  111                197.30    147.14     59.42      0.00
  113                 27.81    147.21     62.92      0.00
  115                 72.42    147.88     58.01      0.00
  117                163.62    150.88     59.48      0.00
  119                244.82    158.28     67.71      0.00
  120                  0.00    155.88     67.54      0.00
  121                 57.87    161.60     70.89      0.00
  123                  0.00    166.05     67.18      0.00
  125                 63.38    160.95     64.97      0.00
  127                 24.55    159.03     44.64      0.00
  129                  0.00    159.02     46.80      0.00
  131                 59.42    158.99     66.29      0.00
  139                  8.19    154.03     53.31      0.00
  141                 13.69    150.51     63.48      0.00
  143                  8.62    141.12     63.10      0.00
  145                 38.41    151.57     65.24      0.00
  147                 11.88    152.39     58.01      0.00
  149                 37.63    152.74     59.25      0.00
  151                200.83    156.22     53.18      0.00
  153                 61.40    156.31     39.04      0.00
  157                 71.99    155.95     61.90      0.00
  159                 57.43    152.75     63.58      0.00
  161                 21.96    150.57     63.51      0.00
  163                 13.09    150.14     62.89      0.00
  164                  0.00    150.14     62.89      0.00
  166                  3.61    150.14     65.92      0.00
  167                 20.24    148.36     66.45      0.00
  169                  0.00    148.36     66.45      0.00
  171                 54.68    147.35     65.58      0.00
  173                  0.00    147.33     65.57      0.00
  177                 80.86    146.93     60.20      0.00
  179                  0.00    146.89     60.18      0.00
  181                  0.00    146.97     60.22      0.00
  183                  0.00    146.90     58.88      0.00
  184                  0.00    145.86     56.27      0.00
  185                 35.65    146.35     56.48      0.00
  187                  0.00    146.93     58.25      0.00
  189                150.01    147.23     62.06      0.00
  191                113.84    147.12     52.91      0.00
  193                 99.12    147.21     55.99      0.00
  195                  0.00    147.29     57.10      0.00
  197                 23.69    147.12     53.78      0.00
  199                165.85    142.90     62.78      0.00
  201                 62.01    142.30     61.61      0.00
  203               3782.83    142.18     60.74      0.00
  204                  0.00    146.72     54.48      0.00
  205                 90.85    142.82     52.78      0.00
  206                  0.00    141.65     60.95      0.00
  207                 96.45    142.08     57.66      0.00
  208                  0.00    141.18     54.24      0.00
  209                  1.21    140.35     61.68      0.00
  211                 12.05    140.07     57.66      0.00
  213                 19.38    139.99     57.62      0.00
  215                128.14    139.78     57.53      0.00
  217                 33.67    139.76     57.96      0.00
  219                 57.43    139.75     58.82      0.00
  225                 31.69    139.75     57.09      0.00
  229                 89.21    139.69     55.98      0.00
  231                 22.91    139.68     58.36      0.00
  237                 21.70    139.73     54.48      0.00
  239                 62.01    139.68     54.89      0.00
  241                  0.00    139.68     54.89      0.00
  243                  6.03    139.68     54.46      0.00
  247                 97.83    139.67     52.72      0.00
  249                  0.00    139.67     52.72      0.00
  251                 33.58    139.67     47.52      0.00
  253                 75.78    139.62     44.90      0.00
  255                 56.14    139.68     48.82      0.00
  257                  0.00    152.81     58.85      0.00
  259                  0.00    152.38     55.19      0.00
  261                  0.00    150.83     65.35      0.00
  263                  0.00    150.67     65.28      0.00
  265                  0.00    148.93     64.53      0.00
  267                  0.00    147.27     54.71      0.00
  269                  0.00    147.67     63.98      0.00
  271                  0.00    147.08     61.13      0.00
  273                  0.00    142.83     58.42      0.00
  275                  0.00    142.28     57.32      0.00
  River           -13138.33    220.00      0.00      0.00  Reservoir
  Lake                 0.00    167.00      0.00      0.00  Reservoir
  1                  737.86    145.18      5.75      0.00  Tank
  2                 -164.71    139.88     10.13      0.00  Tank
  3                 2453.94    158.16     12.63      0.00  Tank
   
   
  Link Results at 0:10:00 hrs:
  ----------------------------------------------
                       Flow  Velocity  Headloss
  Link                  gpm       fps   /1000ft
  ----------------------------------------------
  20               -2453.94      0.10      0.00
  40                -737.86      0.03      0.00
  50                 164.71      0.01      0.00
  60               13138.33      9.32      8.90
  101                  0.00      0.00      0.00
  103                156.37      0.25      0.02
  105               -420.40      1.19      0.51
  107                 22.22      0.06      0.00
  109                -28.77      0.05      0.00
  111               -350.42      0.99      0.36
  112                476.69      1.35      0.64
  113               -111.62      0.32      0.04
  114                115.62      0.74      0.34
  115                -53.73      0.34      0.08
  116                -23.81      0.07      0.00
  117                630.78      1.79      1.08
  119               -718.47      2.04      1.37
  120               1150.16      3.26      3.28
  121               1029.33      2.92      2.67
  122                362.71      2.32      2.79
  123               9618.97      4.37      1.66
  125              13138.33      5.96      2.96
  129               3098.78      2.20      0.70
  131               2825.14      2.00      0.59
  133              -2453.94      2.51      1.11
  135                346.65      0.25      0.01
  137                 59.42      0.09      0.00
  145                287.23      1.83      1.81
  147                279.04      1.78      1.72
  149               -582.04      3.72      6.70
  151               -573.42      3.66      6.52
  153                316.69      0.90      0.30
  155                355.09      1.01      0.37
  159               -366.98      1.04      0.40
  161               -404.60      2.58      3.42
  163               -148.86      0.42      0.07
  169                210.26      1.34      1.02
  171                456.57      1.30      0.59
  173               7767.42      3.53      1.12
  175               7695.43      3.49      1.10
  177               7638.00      3.47      1.09
  179               7363.32      3.34      1.01
  180                  3.61      0.01      0.00
  181                  3.61      0.01      0.00
  183               7132.78      3.24      0.96
  185                -20.24      0.13      0.01
  186                306.70      1.96      2.05
  187               6483.08      2.94      0.80
  189               4293.81      1.95      0.37
  191              -2134.59      1.51      0.35
  193              -1518.12      1.08      0.19
  195                753.11      2.14      1.50
  197                672.25      1.91      1.21
  199                -65.61      0.19      0.02
  201               -737.86      2.09      1.44
  202                488.24      3.12      4.84
  203                217.20      1.39      1.08
  204                488.24      1.39      0.67
  205                306.70      0.87      0.28
  207                282.80      0.80      0.24
  209                158.13      1.01      0.60
  211                629.46      1.79      1.08
  213                148.57      0.42      0.07
  215                 98.11      0.28      0.03
  217               -245.50      0.70      0.19
  219               -252.72      0.72      0.20
  221                252.72      1.61      1.43
  223                 16.91      0.05      0.00
  225                 40.60      0.12      0.01
  229               4293.81      3.05      1.11
  231               3960.54      2.81      0.95
  233               3782.83      2.68      1.02
  235                167.41      0.47      0.09
  237                467.20      1.33      0.62
  238                584.05      1.66      0.94
  239                213.30      0.61      0.14
  240                584.05      1.66      0.94
  241                584.05      1.66      0.94
  243                582.84      0.93      0.23
  245                341.33      0.54      0.09
  247                250.94      0.40      0.05
  249                122.79      0.20      0.01
  251                 57.43      0.12      0.01
  257                 31.69      0.09      0.00
  261                 71.02      0.45      0.14
  263                 22.91      0.06      0.00
  269                229.46      0.65      0.17
  271                 41.10      0.26      0.05
  273                166.66      0.47      0.09
  275                 42.93      0.12      0.01
  277                  6.03      0.02      0.00
  281                 36.90      0.15      0.01
  283                 61.72      0.18      0.01
  285                -42.42      0.12      0.01
  287                -18.51      0.08      0.00
  289                164.71      0.67      0.22
  291                 75.78      0.31      0.05
  293                 14.28      0.09      0.01
  295                 19.31      0.05      0.00
  297                483.54      3.09      4.76
  299                232.32      1.48      1.22
  301                232.32      1.48      1.22
  303                251.21      1.60      1.41
  305                147.25      0.42      0.07
  307                398.46      1.13      0.46
  309                213.83      1.36      1.05
  311               -115.72      0.33      0.05
  313                492.83      1.40      0.68
  315              -2271.23      1.61      0.40
  317                 97.60      0.62      0.25
  319                 69.81      0.20      0.02
  321               7346.61      3.33      1.01
  323                115.70      0.33      0.05
  325                136.64      0.87      0.46
  329              13138.33      5.96      3.00
  330                  0.00      0.00      0.00
  333                 -0.00      0.00      0.00
  10                   0.00      0.00      0.00  Pump
  335              13138.33      0.00    -93.62  Pump
   
   
  Node Results at 0:15:00 hrs:
  --------------------------------------------------------
                     Demand      Head  Pressure  Chemical
  Node                  gpm        ft       psi      mg/L
  --------------------------------------------------------
  10                   0.00    146.50     -0.22      0.00
  15                 573.42    130.43     42.65      0.00
  20                   0.00    158.23     12.67      0.00
  35                1518.12    147.03     58.29      0.00
  40                   0.00    145.26      5.79      0.00
  50                   0.00    139.82     10.11      0.00
  60                   0.00    209.04     90.58      0.00
  601                  0.00    302.68    131.15      0.00
  61                   0.00    302.68    131.15      0.00
  101                264.03    146.50     45.28      0.00
  103                185.15    146.47     44.83      0.00
  105                188.16    147.79     51.69      0.00
  107                 75.95    147.79     54.50      0.00
  109                321.65    146.47     54.67      0.00
  111                197.30    147.20     59.45      0.00
  113                 27.81    147.27     62.95      0.00
  115                 72.42    147.95     58.04      0.00
  117                163.62    150.94     59.51      0.00
  119                244.82    158.34     67.74      0.00
  120                  0.00    155.94     67.57      0.00
  121                 57.87    161.67     70.92      0.00
  123                  0.00    166.11     67.21      0.00
  125                 63.38    161.02     65.00      0.00
  127                 24.55    159.10     44.67      0.00
  129                  0.00    159.09     46.84      0.00
  131                 59.42    159.07     66.32      0.00
  139                  8.19    154.10     53.34      0.00
  141                 13.69    150.58     63.51      0.00
  143                  8.62    141.19     63.13      0.00
  145                 38.41    151.64     65.27      0.00
  147                 11.88    152.46     58.04      0.00
  149                 37.63    152.80     59.28      0.00
  151                200.83    156.29     53.20      0.00
  153                 61.40    156.38     39.07      0.00
  157                 71.99    156.01     61.92      0.00
  159                 57.43    152.81     63.61      0.00
  161                 21.96    150.64     63.54      0.00
  163                 13.09    150.20     62.92      0.00
  164                  0.00    150.20     62.92      0.00
  166                  3.61    150.20     65.95      0.00
  167                 20.24    148.42     66.48      0.00
  169                  0.00    148.42     66.48      0.00
  171                 54.68    147.41     65.60      0.00
  173                  0.00    147.39     65.60      0.00
  177                 80.86    146.99     60.23      0.00
  179                  0.00    146.96     60.21      0.00
  181                  0.00    147.04     60.24      0.00
  183                  0.00    146.96     58.91      0.00
  184                  0.00    145.92     56.29      0.00
  185                 35.65    146.41     56.50      0.00
  187                  0.00    146.99     58.27      0.00
  189                150.01    147.29     62.09      0.00
  191                113.84    147.18     52.94      0.00
  193                 99.12    147.28     56.02      0.00
  195                  0.00    147.35     57.13      0.00
  197                 23.69    147.18     53.81      0.00
  199                165.85    142.95     62.80      0.00
  201                 62.01    142.34     61.63      0.00
  203               3782.83    142.22     60.76      0.00
  204                  0.00    146.78     54.50      0.00
  205                 90.85    142.86     52.80      0.00
  206                  0.00    141.68     60.96      0.00
  207                 96.45    142.11     57.68      0.00
  208                  0.00    141.19     54.25      0.00
  209                  1.21    140.34     61.68      0.00
  211                 12.05    140.06     57.65      0.00
  213                 19.38    139.97     57.62      0.00
  215                128.14    139.77     57.53      0.00
  217                 33.67    139.74     57.95      0.00
  219                 57.43    139.73     58.81      0.00
  225                 31.69    139.74     57.08      0.00
  229                 89.21    139.66     55.96      0.00
  231                 22.91    139.65     58.35      0.00
  237                 21.70    139.69     54.46      0.00
  239                 62.01    139.64     54.87      0.00
  241                  0.00    139.64     54.87      0.00
  243                  6.03    139.64     54.44      0.00
  247                 97.83    139.64     52.71      0.00
  249                  0.00    139.64     52.71      0.00
  251                 33.58    139.63     47.50      0.00
  253                 75.78    139.58     44.88      0.00
  255                 56.14    139.64     48.81      0.00
  257                  0.00    152.88     58.87      0.00
  259                  0.00    152.45     55.22      0.00
  261                  0.00    150.89     65.38      0.00
  263                  0.00    150.73     65.31      0.00
  265                  0.00    148.99     64.56      0.00
  267                  0.00    147.33     54.74      0.00
  269                  0.00    147.73     64.01      0.00
  271                  0.00    147.14     61.16      0.00
  273                  0.00    142.88     58.44      0.00
  275                  0.00    142.33     57.34      0.00
  River           -13136.10    220.00      0.00      0.00  Reservoir
  Lake                 0.00    167.00      0.00      0.00  Reservoir
  1                  732.29    145.26      5.79      0.00  Tank
  2                 -156.87    139.82     10.11      0.00  Tank
  3                 2449.44    158.23     12.67      0.00  Tank
   
   
  Link Results at 0:15:00 hrs:
  ----------------------------------------------
                       Flow  Velocity  Headloss
  Link                  gpm       fps   /1000ft
  ----------------------------------------------
  20               -2449.44      0.10      0.00
  40                -732.29      0.03      0.00
  50                 156.87      0.01      0.00
  60               13136.10      9.32      8.90
  101                  0.00      0.00      0.00
  103                156.44      0.25      0.02
  105               -420.47      1.19      0.51
  107                 22.26      0.06      0.00
  109                -28.71      0.05      0.00
  111               -350.35      0.99      0.36
  112                476.84      1.35      0.64
  113               -111.57      0.32      0.04
  114                115.67      0.74      0.34
  115                -53.69      0.34      0.08
  116                -23.71      0.07      0.00
  117                630.89      1.79      1.08
  119               -718.62      2.04      1.37
  120               1150.35      3.26      3.29
  121               1029.51      2.92      2.67
  122                362.78      2.32      2.79
  123               9621.04      4.37      1.66
  125              13136.10      5.96      2.96
  129               3094.41      2.19      0.70
  131               2820.72      2.00      0.59
  133              -2449.44      2.50      1.11
  135                346.74      0.25      0.01
  137                 59.42      0.09      0.00
  145                287.32      1.83      1.81
  147                279.13      1.78      1.72
  149               -582.04      3.72      6.70
  151               -573.42      3.66      6.52
  153                316.60      0.90      0.30
  155                355.00      1.01      0.37
  159               -366.89      1.04      0.40
  161               -404.52      2.58      3.42
  163               -148.91      0.42      0.07
  169                210.30      1.34      1.02
  171                456.44      1.29      0.59
  173               7769.43      3.53      1.12
  175               7697.45      3.49      1.10
  177               7640.01      3.47      1.09
  179               7365.32      3.34      1.01
  180                  3.61      0.01      0.00
  181                  3.61      0.01      0.00
  183               7134.81      3.24      0.96
  185                -20.24      0.13      0.01
  186                307.13      1.96      2.05
  187               6485.32      2.94      0.80
  189               4300.57      1.95      0.37
  191              -2130.07      1.51      0.35
  193              -1518.12      1.08      0.19
  195                748.58      2.12      1.48
  197                667.73      1.89      1.20
  199                -64.56      0.18      0.02
  201               -732.29      2.08      1.42
  202                489.32      3.12      4.86
  203                217.84      1.39      1.09
  204                489.32      1.39      0.67
  205                307.13      0.87      0.28
  207                282.40      0.80      0.24
  209                158.31      1.01      0.60
  211                629.26      1.79      1.07
  213                148.82      0.42      0.07
  215                 98.10      0.28      0.03
  217               -245.59      0.70      0.19
  219               -252.73      0.72      0.20
  221                252.73      1.61      1.43
  223                 17.07      0.05      0.00
  225                 40.76      0.12      0.01
  229               4300.57      3.05      1.11
  231               3965.25      2.81      0.96
  233               3782.83      2.68      1.02
  235                169.46      0.48      0.09
  237                470.24      1.33      0.63
  238                591.89      1.68      0.96
  239                218.10      0.62      0.15
  240                591.89      1.68      0.96
  241                591.89      1.68      0.96
  243                590.68      0.94      0.24
  245                343.05      0.55      0.09
  247                250.94      0.40      0.05
  249                122.79      0.20      0.01
  251                 57.43      0.12      0.01
  257                 31.69      0.09      0.00
  261                 72.73      0.46      0.14
  263                 22.91      0.06      0.00
  269                235.59      0.67      0.17
  271                 39.38      0.25      0.05
  273                174.50      0.50      0.10
  275                 45.87      0.13      0.01
  277                  6.03      0.02      0.00
  281                 39.84      0.16      0.02
  283                 66.62      0.19      0.02
  285                -45.11      0.13      0.01
  287                -12.88      0.05      0.00
  289                156.87      0.64      0.20
  291                 75.78      0.31      0.05
  293                 12.07      0.08      0.01
  295                 21.51      0.06      0.00
  297                483.62      3.09      4.76
  299                232.36      1.48      1.22
  301                232.36      1.48      1.22
  303                251.26      1.60      1.41
  305                147.27      0.42      0.07
  307                398.53      1.13      0.46
  309                213.80      1.36      1.05
  311               -115.69      0.33      0.05
  313                492.62      1.40      0.68
  315              -2266.70      1.61      0.39
  317                 97.69      0.62      0.25
  319                 71.77      0.20      0.02
  321               7348.61      3.34      1.01
  323                120.41      0.34      0.05
  325                136.64      0.87      0.46
  329              13136.10      5.96      3.00
  330                  0.00      0.00      0.00
  333                 -0.00      0.00      0.00
  10                   0.00      0.00      0.00  Pump
  335              13136.10      0.00    -93.63  Pump
   
   
  Node Results at 0:20:00 hrs:
  --------------------------------------------------------
                     Demand      Head  Pressure  Chemical
  Node                  gpm        ft       psi      mg/L
  --------------------------------------------------------
  10                   0.00    146.56     -0.19      0.00
  15                 573.42    130.50     42.68      0.00
  20                   0.00    158.31     12.70      0.00
  35                1518.12    147.09     58.32      0.00
  40                   0.00    145.35      5.83      0.00
  50                   0.00    139.77     10.08      0.00
  60                   0.00    209.05     90.58      0.00
  601                  0.00    302.70    131.16      0.00
  61                   0.00    302.70    131.16      0.00
  101                264.03    146.56     45.31      0.00
  103                185.15    146.53     44.86      0.00
  105                188.16    147.85     51.72      0.00
  107                 75.95    147.85     54.53      0.00
  109                321.65    146.53     54.70      0.00
  111                197.30    147.26     59.48      0.00
  113                 27.81    147.33     62.97      0.00
  115                 72.42    148.01     58.07      0.00
  117                163.62    151.01     59.54      0.00
  119                244.82    158.41     67.77      0.00
  120                  0.00    156.01     67.60      0.00
  121                 57.87    161.74     70.95      0.00
  123                  0.00    166.18     67.24      0.00
  125                 63.38    161.09     65.03      0.00
  127                 24.55    159.18     44.71      0.00
  129                  0.00    159.17     46.87      0.00
  131                 59.42    159.14     66.36      0.00
  139                  8.19    154.18     53.37      0.00
  141                 13.69    150.65     63.54      0.00
  143                  8.62    141.26     63.16      0.00
  145                 38.41    151.71     65.30      0.00
  147                 11.88    152.52     58.07      0.00
  149                 37.63    152.87     59.31      0.00
  151                200.83    156.36     53.23      0.00
  153                 61.40    156.44     39.10      0.00
  157                 71.99    156.08     61.95      0.00
  159                 57.43    152.87     63.64      0.00
  161                 21.96    150.70     63.56      0.00
  163                 13.09    150.26     62.94      0.00
  164                  0.00    150.26     62.94      0.00
  166                  3.61    150.26     65.98      0.00
  167                 20.24    148.48     66.51      0.00
  169                  0.00    148.49     66.51      0.00
  171                 54.68    147.47     65.63      0.00
  173                  0.00    147.45     65.62      0.00
  177                 80.86    147.06     60.25      0.00
  179                  0.00    147.02     60.24      0.00
  181                  0.00    147.10     60.27      0.00
  183                  0.00    147.02     58.94      0.00
  184                  0.00    145.98     56.32      0.00
  185                 35.65    146.47     56.53      0.00
  187                  0.00    147.05     58.30      0.00
  189                150.01    147.35     62.11      0.00
  191                113.84    147.24     52.97      0.00
  193                 99.12    147.34     56.04      0.00
  195                  0.00    147.41     57.16      0.00
  197                 23.69    147.24     53.83      0.00
  199                165.85    142.99     62.83      0.00
  201                 62.01    142.39     61.65      0.00
  203               3782.83    142.27     60.78      0.00
  204                  0.00    146.84     54.53      0.00
  205                 90.85    142.91     52.82      0.00
  206                  0.00    141.71     60.97      0.00
  207                 96.45    142.15     57.69      0.00
  208                  0.00    141.21     54.25      0.00
  209                  1.21    140.34     61.67      0.00
  211                 12.05    140.04     57.65      0.00
  213                 19.38    139.96     57.61      0.00
  215                128.14    139.75     57.52      0.00
  217                 33.67    139.73     57.95      0.00
  219                 57.43    139.72     58.81      0.00
  225                 31.69    139.72     57.08      0.00
  229                 89.21    139.63     55.95      0.00
  231                 22.91    139.63     58.33      0.00
  237                 21.70    139.66     54.45      0.00
  239                 62.01    139.61     54.86      0.00
  241                  0.00    139.61     54.86      0.00
  243                  6.03    139.61     54.43      0.00
  247                 97.83    139.60     52.69      0.00
  249                  0.00    139.60     52.69      0.00
  251                 33.58    139.60     47.49      0.00
  253                 75.78    139.55     44.87      0.00
  255                 56.14    139.60     48.79      0.00
  257                  0.00    152.94     58.90      0.00
  259                  0.00    152.51     55.25      0.00
  261                  0.00    150.96     65.41      0.00
  263                  0.00    150.80     65.34      0.00
  265                  0.00    149.05     64.58      0.00
  267                  0.00    147.39     54.77      0.00
  269                  0.00    147.79     64.04      0.00
  271                  0.00    147.20     61.18      0.00
  273                  0.00    142.92     58.46      0.00
  275                  0.00    142.37     57.36      0.00
  River           -13133.87    220.00      0.00      0.00  Reservoir
  Lake                 0.00    167.00      0.00      0.00  Reservoir
  1                  726.85    145.35      5.83      0.00  Tank
  2                 -149.20    139.77     10.08      0.00  Tank
  3                 2444.98    158.31     12.70      0.00  Tank
   
   
  Link Results at 0:20:00 hrs:
  ----------------------------------------------
                       Flow  Velocity  Headloss
  Link                  gpm       fps   /1000ft
  ----------------------------------------------
  20               -2444.98      0.10      0.00
  40                -726.85      0.03      0.00
  50                 149.20      0.01      0.00
  60               13133.87      9.31      8.90
  101                  0.00      0.00      0.00
  103                156.50      0.25      0.02
  105               -420.53      1.19      0.51
  107                 22.29      0.06      0.00
  109                -28.64      0.05      0.00
  111               -350.29      0.99      0.36
  112                476.99      1.35      0.64
  113               -111.52      0.32      0.04
  114                115.72      0.74      0.34
  115                -53.65      0.34      0.08
  116                -23.61      0.07      0.00
  117                630.99      1.79      1.08
  119               -718.78      2.04      1.38
  120               1150.54      3.26      3.29
  121               1029.68      2.92      2.68
  122                362.85      2.32      2.79
  123               9623.07      4.37      1.66
  125              13133.87      5.96      2.96
  129               3090.08      2.19      0.70
  131               2816.35      2.00      0.59
  133              -2444.98      2.50      1.10
  135                346.83      0.25      0.01
  137                 59.42      0.09      0.00
  145                287.41      1.83      1.81
  147                279.22      1.78      1.72
  149               -582.04      3.72      6.70
  151               -573.42      3.66      6.52
  153                316.51      0.90      0.30
  155                354.92      1.01      0.37
  159               -366.80      1.04      0.40
  161               -404.43      2.58      3.42
  163               -148.95      0.42      0.07
  169                210.35      1.34      1.02
  171                456.30      1.29      0.59
  173               7771.41      3.53      1.12
  175               7699.42      3.49      1.10
  177               7641.99      3.47      1.09
  179               7367.28      3.34      1.01
  180                  3.61      0.01      0.00
  181                  3.61      0.01      0.00
  183               7136.80      3.24      0.96
  185                -20.24      0.13      0.01
  186                307.56      1.96      2.06
  187               6487.51      2.94      0.80
  189               4307.19      1.95      0.38
  191              -2125.64      1.51      0.35
  193              -1518.12      1.08      0.19
  195                744.16      2.11      1.47
  197                663.30      1.88      1.19
  199                -63.55      0.18      0.02
  201               -726.85      2.06      1.40
  202                490.37      3.13      4.88
  203                218.47      1.39      1.09
  204                490.37      1.39      0.68
  205                307.56      0.87      0.29
  207                282.01      0.80      0.24
  209                158.49      1.01      0.60
  211                629.05      1.78      1.07
  213                149.07      0.42      0.07
  215                 98.10      0.28      0.03
  217               -245.68      0.70      0.19
  219               -252.75      0.72      0.20
  221                252.75      1.61      1.43
  223                 17.23      0.05      0.00
  225                 40.91      0.12      0.01
  229               4307.19      3.05      1.11
  231               3969.85      2.82      0.96
  233               3782.83      2.68      1.02
  235                171.48      0.49      0.10
  237                473.24      1.34      0.63
  238                599.57      1.70      0.98
  239                222.79      0.63      0.16
  240                599.57      1.70      0.98
  241                599.57      1.70      0.98
  243                598.36      0.95      0.24
  245                344.74      0.55      0.09
  247                250.94      0.40      0.05
  249                122.79      0.20      0.01
  251                 57.43      0.12      0.01
  257                 31.69      0.09      0.00
  261                 74.42      0.48      0.15
  263                 22.91      0.06      0.00
  269                241.57      0.69      0.18
  271                 37.69      0.24      0.04
  273                182.18      0.52      0.11
  275                 48.75      0.14      0.01
  277                  6.03      0.02      0.00
  281                 42.72      0.17      0.02
  283                 71.42      0.20      0.02
  285                -48.18      0.14      0.01
  287                 -6.93      0.03      0.00
  289                149.20      0.61      0.18
  291                 75.78      0.31      0.05
  293                 10.34      0.07      0.00
  295                 23.24      0.07      0.00
  297                483.70      3.09      4.76
  299                232.40      1.48      1.22
  301                232.40      1.48      1.22
  303                251.30      1.60      1.42
  305                147.29      0.42      0.07
  307                398.59      1.13      0.46
  309                213.77      1.36      1.05
  311               -115.67      0.33      0.05
  313                492.41      1.40      0.68
  315              -2262.28      1.60      0.39
  317                 97.77      0.62      0.25
  319                 73.71      0.21      0.02
  321               7350.57      3.34      1.01
  323                125.01      0.35      0.05
  325                136.64      0.87      0.46
  329              13133.87      5.96      3.00
  330                  0.00      0.00      0.00
  333                 -0.00      0.00      0.00
  10                   0.00      0.00      0.00  Pump
  335              13133.87      0.00    -93.65  Pump
   
   
  Node Results at 0:25:00 hrs:
  --------------------------------------------------------
                     Demand      Head  Pressure  Chemical
  Node                  gpm        ft       psi      mg/L
  --------------------------------------------------------
  10                   0.00    146.62     -0.16      0.00
  15                 573.42    130.57     42.71      0.00
  20                   0.00    158.39     12.73      0.00
  35                1518.12    147.16     58.35      0.00
  40                   0.00    145.43      5.86      0.00
  50                   0.00    139.72     10.06      0.00
  60                   0.00    209.05     90.58      0.00
  601                  0.00    302.73    131.17      0.00
  61                   0.00    302.73    131.17      0.00
  101                264.03    146.62     45.33      0.00
  103                185.15    146.59     44.89      0.00
  105                188.16    147.92     51.74      0.00
  107                 75.95    147.91     54.56      0.00
  109                321.65    146.60     54.72      0.00
  111                197.30    147.32     59.50      0.00
  113                 27.81    147.40     63.00      0.00
  115                 72.42    148.07     58.09      0.00
  117                163.62    151.07     59.57      0.00
  119                244.82    158.47     67.80      0.00
  120                  0.00    156.07     67.63      0.00
  121                 57.87    161.80     70.98      0.00
  123                  0.00    166.24     67.27      0.00
  125                 63.38    161.15     65.06      0.00
  127                 24.55    159.25     44.74      0.00
  129                  0.00    159.24     46.90      0.00
  131                 59.42    159.22     66.39      0.00
  139                  8.19    154.25     53.40      0.00
  141                 13.69    150.72     63.57      0.00
  143                  8.62    141.33     63.19      0.00
  145                 38.41    151.77     65.33      0.00
  147                 11.88    152.59     58.10      0.00
  149                 37.63    152.94     59.34      0.00
  151                200.83    156.42     53.26      0.00
  153                 61.40    156.51     39.13      0.00
  157                 71.99    156.14     61.98      0.00
  159                 57.43    152.94     63.67      0.00
  161                 21.96    150.76     63.59      0.00
  163                 13.09    150.33     62.97      0.00
  164                  0.00    150.33     62.97      0.00
  166                  3.61    150.33     66.00      0.00
  167                 20.24    148.55     66.53      0.00
  169                  0.00    148.55     66.53      0.00
  171                 54.68    147.53     65.66      0.00
  173                  0.00    147.51     65.65      0.00
  177                 80.86    147.12     60.28      0.00
  179                  0.00    147.08     60.26      0.00
  181                  0.00    147.16     60.30      0.00
  183                  0.00    147.09     58.97      0.00
  184                  0.00    146.04     56.34      0.00
  185                 35.65    146.53     56.56      0.00
  187                  0.00    147.11     58.33      0.00
  189                150.01    147.41     62.14      0.00
  191                113.84    147.30     52.99      0.00
  193                 99.12    147.40     56.07      0.00
  195                  0.00    147.47     57.18      0.00
  197                 23.69    147.30     53.86      0.00
  199                165.85    143.04     62.85      0.00
  201                 62.01    142.44     61.67      0.00
  203               3782.83    142.31     60.80      0.00
  204                  0.00    146.91     54.55      0.00
  205                 90.85    142.96     52.84      0.00
[...]
  219                 79.75    134.84     56.69      0.00
  225                 44.00    134.85     54.97      0.00
  229                123.87    135.16     54.02      0.00
  231                 31.81    135.15     56.39      0.00
  237                 30.13    135.41     52.61      0.00
  239                 86.10    135.44     53.05      0.00
  241                  0.00    135.44     53.05      0.00
  243                  8.38    135.44     52.62      0.00
  247                135.83    135.46     50.90      0.00
  249                  0.00    135.46     50.90      0.00
  251                 46.63    135.52     45.72      0.00
  253                105.22    136.03     43.34      0.00
  255                 77.95    136.13     47.29      0.00
  257                  0.00    149.65     57.48      0.00
  259                  0.00    149.11     53.78      0.00
  261                  0.00    147.17     63.77      0.00
  263                  0.00    146.96     63.68      0.00
  265                  0.00    146.52     63.49      0.00
  267                  0.00    144.46     53.50      0.00
  269                  0.00    145.15     62.89      0.00
  271                  0.00    144.79     60.14      0.00
  273                  0.00    137.59     56.15      0.00
  275                  0.00    136.67     54.89      0.00
  River           -13220.61    220.00      0.00      0.00  Reservoir
  Lake                 0.00    167.00      0.00      0.00  Reservoir
  1                 -885.57    147.19      6.63      0.00  Tank
  2                 -587.71    138.26      9.43      0.00  Tank
  3                 -120.08    160.20     13.52      0.00  Tank
   
   
  Link Results at 23:55:00 hrs:
  ----------------------------------------------
                       Flow  Velocity  Headloss
  Link                  gpm       fps   /1000ft
  ----------------------------------------------
  20                 120.08      0.01      0.00
  40                 885.57      0.04      0.00
  50                 587.71      0.02      0.00
  60               13220.61      9.38      9.01
  101                  0.00      0.00      0.00
  103                123.63      0.20      0.01
  105               -490.24      1.39      0.68
  107                -25.22      0.07      0.00
  109               -133.44      0.21      0.01
  111               -580.05      1.65      0.92
  112                444.61      1.26      0.56
  113               -251.11      0.71      0.20
  114                 78.21      0.50      0.16
  115               -130.67      0.83      0.42
  116               -211.52      0.60      0.14
  117                726.28      2.06      1.40
  119               -754.04      2.14      1.50
  120               1310.72      3.72      4.18
  121               1161.29      3.29      3.34
  122                396.78      2.53      3.30
  123              10196.18      4.63      1.85
  125              11279.87      5.12      2.23
  129                606.56      0.43      0.03
  131                287.57      0.20      0.01
  133                120.08      0.12      0.00
  135                373.57      0.26      0.01
  137                 82.51      0.13      0.01
  145                291.06      1.86      1.86
  147                279.69      1.79      1.73
  149               -447.11      2.85      4.11
  151               -435.14      2.78      3.91
  153                186.43      0.53      0.11
  155                239.75      0.68      0.18
  159               -256.25      0.73      0.20
  161               -308.50      1.97      2.07
  163               -145.73      0.41      0.07
  169                230.98      1.47      1.21
  171                441.61      1.25      0.56
  173               8103.92      3.68      1.21
  175               8003.96      3.63      1.18
  177               7924.21      3.60      1.16
  179               7601.96      3.45      1.08
  180                  5.02      0.01      0.00
  181                  5.02      0.01      0.00
  183               7338.74      3.33      1.01
  185                -28.10      0.18      0.02
  186                297.42      1.90      1.93
  187               6644.61      3.02      0.84
  189               5569.98      2.53      0.60
  191               -998.70      0.71      0.09
  193              -1390.58      0.99      0.16
  195               -287.45      0.82      0.25
  197               -399.72      1.13      0.46
  199                485.85      1.38      0.67
  201                885.57      2.51      2.02
  202                623.07      3.98      7.61
  203                375.16      2.39      2.97
  204                623.07      1.77      1.06
  205                297.42      0.84      0.27
  207               -110.70      0.31      0.04
  209                287.73      1.84      1.82
  211                666.03      1.89      1.19
  213                  9.69      0.03      0.00
  215               -176.29      0.50      0.10
  217               -358.92      1.02      0.38
  219               -291.77      0.83      0.26
  221                291.77      1.86      1.87
  223               -191.16      0.54      0.12
  225               -158.27      0.45      0.08
  229               5569.98      3.95      1.79
  231               5178.83      3.67      1.57
  233               5164.66      3.66      1.81
  235                160.87      0.46      0.09
  237                528.71      1.50      0.78
  238                451.94      1.28      0.58
  239                 57.15      0.16      0.01
  240                451.94      1.28      0.58
  241                451.94      1.28      0.58
  243                450.26      0.72      0.14
  245                419.70      0.67      0.13
  247                348.42      0.56      0.09
  249                170.50      0.27      0.02
  251                 79.75      0.17      0.01
  257                 44.00      0.12      0.01
  261                 44.38      0.28      0.06
  263                 31.81      0.09      0.00
  269                 13.82      0.04      0.00
  271                111.30      0.71      0.31
  273               -127.60      0.36      0.06
  275                -74.88      0.21      0.02
  277                  8.38      0.02      0.00
  281                -83.25      0.34      0.06
  283               -138.82      0.39      0.07
  285                 33.52      0.10      0.00
  287               -252.61      1.03      0.48
  289                587.71      2.40      2.30
  291                105.22      0.43      0.10
  293                151.93      0.97      0.56
  295               -105.30      0.30      0.04
  297                546.21      3.49      5.96
  299                262.76      1.68      1.54
  301                262.76      1.68      1.54
  303                283.45      1.81      1.77
  305                180.07      0.51      0.11
  307                463.52      1.31      0.61
  309                240.02      1.53      1.30
  311               -416.30      1.18      0.50
  313                561.60      1.59      0.87
  315              -1103.13      0.78      0.10
  317                129.09      0.82      0.41
  319                 31.78      0.09      0.00
  321               7578.76      3.44      1.07
  323                -71.93      0.20      0.02
  325                104.43      0.67      0.28
  329              13220.61      6.00      3.04
  330                  0.00      0.00      0.00
  333                 -0.00      0.00      0.00
  10                   0.00      0.00      0.00  Pump
  335              13220.61      0.00    -92.89  Pump
   
   
  Node Results at 24:00:00 hrs:
  --------------------------------------------------------
                     Demand      Head  Pressure  Chemical
  Node                  gpm        ft       psi      mg/L
  --------------------------------------------------------
  10                   0.00    147.92      0.40      0.00
  15                 573.42    132.14     43.39      0.00
  20                   0.00    160.19     13.52      0.00
  35                1518.12    148.43     58.90      0.00
  40                   0.00    147.09      6.58      0.00
  50                   0.00    138.06      9.34      0.00
  60                   0.00    209.13     90.62      0.00
  601                  0.00    303.24    131.39      0.00
  61                   0.00    303.24    131.39      0.00
  101                264.03    147.92     45.90      0.00
  103                185.15    147.90     45.45      0.00
  105                188.16    149.23     52.31      0.00
  107                 75.95    149.23     55.13      0.00
  109                321.65    147.90     55.29      0.00
  111                197.30    148.61     60.06      0.00
  113                 27.81    148.68     63.56      0.00
  115                 72.42    149.38     58.66      0.00
  117                163.62    152.43     60.15      0.00
  119                244.82    159.93     68.43      0.00
  120                  0.00    157.50     68.24      0.00
  121                 57.87    163.31     71.63      0.00
  123                  0.00    167.72     67.91      0.00
  125                 63.38    162.71     65.74      0.00
  127                 24.55    160.97     45.48      0.00
  129                  0.00    160.96     47.64      0.00
  131                 59.42    160.94     67.13      0.00
  139                  8.19    155.88     54.11      0.00
  141                 13.69    152.28     64.25      0.00
  143                  8.62    142.90     63.87      0.00
  145                 38.41    153.32     66.00      0.00
  147                 11.88    154.13     58.77      0.00
  149                 37.63    154.47     60.00      0.00
  151                200.83    157.91     53.91      0.00
  153                 61.40    158.00     39.78      0.00
  157                 71.99    157.55     62.59      0.00
  159                 57.43    154.29     64.25      0.00
  161                 21.96    152.07     64.16      0.00
  163                 13.09    151.63     63.53      0.00
  164                  0.00    151.63     63.53      0.00
  166                  3.61    151.63     66.57      0.00
  167                 20.24    149.82     67.08      0.00
  169                  0.00    149.82     67.08      0.00
  171                 54.68    148.78     66.20      0.00
  173                  0.00    148.76     66.19      0.00
  177                 80.86    148.40     60.83      0.00
  179                  0.00    148.37     60.82      0.00
  181                  0.00    148.43     60.85      0.00
  183                  0.00    148.37     59.52      0.00
  184                  0.00    147.21     56.85      0.00
  185                 35.65    147.75     57.09      0.00
  187                  0.00    148.38     58.88      0.00
  189                150.01    148.69     62.70      0.00
  191                113.84    148.59     53.55      0.00
  193                 99.12    148.69     56.63      0.00
  195                  0.00    148.76     57.74      0.00
  197                 23.69    148.59     54.42      0.00
  199                165.85    143.99     63.26      0.00
  201                 62.01    143.36     62.07      2.08
  203               3782.83    143.23     61.20      2.22
  204                  0.00    148.16     55.10      0.00
  205                 90.85    143.84     53.23      0.00
  206                  0.00    142.11     61.14      0.00
  207                 96.45    142.83     57.99      0.00
  208                  0.00    141.28     54.28      0.00
  209                  1.21    139.85     61.46      0.00
  211                 12.05    139.36     57.35      0.00
  213                 19.38    139.26     57.31      0.00
  215                128.14    139.05     57.22      0.00
  217                 33.67    139.03     57.64      0.00
  219                 57.43    139.02     58.50      0.00
  225                 31.69    139.02     56.77      0.00
  229                 89.21    138.48     55.45      0.00
  231                 22.91    138.47     57.83      0.00
  237                 21.70    138.47     53.93      0.00
  239                 62.01    138.27     54.28      0.00
  241                  0.00    138.27     54.28      0.00
  243                  6.03    138.27     53.85      0.00
  247                 97.83    138.22     52.09      0.00
  249                  0.00    138.22     52.09      0.00
  251                 33.58    138.18     46.87      0.00
  253                 75.78    138.02     44.20      0.00
  255                 56.14    138.08     48.13      0.00
  257                  0.00    154.39     59.53      0.00
  259                  0.00    153.95     55.88      0.00
  261                  0.00    152.38     66.03      0.00
  263                  0.00    152.22     65.95      0.00
  265                  0.00    150.39     65.17      0.00
  267                  0.00    148.74     55.35      0.00
  269                  0.00    149.13     64.62      0.00
  271                  0.00    148.53     61.76      0.00
  273                  0.00    143.87     58.87      0.00
  275                  0.00    143.31     57.76      0.00
  River           -13081.82    220.00      0.00      0.00  Reservoir
  Lake                 0.00    167.00      0.00      0.00  Reservoir
  1                  629.45    147.09      6.58      0.00  Tank
  2                   36.64    138.06      9.34      0.00  Tank
  3                 2304.50    160.19     13.52      0.00  Tank
   
   
  Link Results at 24:00:00 hrs:
  ----------------------------------------------
                       Flow  Velocity  Headloss
  Link                  gpm       fps   /1000ft
  ----------------------------------------------
  20               -2304.50      0.10      0.00
  40                -629.45      0.03      0.00
  50                 -36.64      0.00      0.00
  60               13081.82      9.28      8.83
  101                  0.00      0.00      0.00
  103                159.23      0.25      0.02
  105               -423.26      1.20      0.52
  107                 23.97      0.07      0.00
  109                -25.91      0.04      0.00
  111               -347.56      0.99      0.36
  112                483.17      1.37      0.66
  113               -108.55      0.31      0.04
  114                117.70      0.75      0.35
  115                -51.98      0.33      0.08
  116                -18.66      0.05      0.00
  117                635.40      1.80      1.09
  119               -725.27      2.06      1.40
  120               1158.59      3.29      3.33
  121               1037.10      2.94      2.71
  122                365.69      2.33      2.83
  123               9704.23      4.40      1.69
  125              13081.82      5.94      2.94
  129               2954.03      2.09      0.64
  131               2678.70      1.90      0.54
  133              -2304.50      2.35      0.99
  135                349.65      0.25      0.01
  137                 59.42      0.09      0.00
  145                290.23      1.85      1.85
  147                282.04      1.80      1.75
  149               -582.04      3.72      6.70
  151               -573.42      3.66      6.52
  153                313.69      0.89      0.30
  155                352.09      1.00      0.37
  159               -363.98      1.03      0.39
  161               -401.60      2.56      3.37
  163               -150.56      0.43      0.08
  169                211.95      1.35      1.03
  171                451.88      1.28      0.58
  173               7848.94      3.56      1.14
  175               7776.95      3.53      1.12
  177               7719.52      3.50      1.11
  179               7443.71      3.38      1.03
  180                  3.61      0.01      0.00
  181                  3.61      0.01      0.00
  183               7213.32      3.27      0.98
  185                -20.24      0.13      0.01
  186                319.76      2.04      2.21
  187               6566.10      2.98      0.82
  189               4467.27      2.03      0.40
  191              -2044.15      1.45      0.33
  193              -1518.12      1.08      0.19
  195                663.74      1.88      1.19
  197                582.88      1.65      0.93
  199                -46.56      0.13      0.01
  201               -629.45      1.79      1.08
  202                516.13      3.29      5.37
  203                232.02      1.48      1.22
  204                516.13      1.46      0.74
  205                319.76      0.91      0.31
  207                278.58      0.79      0.24
  209                162.62      1.04      0.63
  211                626.99      1.78      1.07
  213                157.14      0.45      0.08
  215                101.94      0.29      0.04
  217               -247.81      0.70      0.19
  219               -253.85      0.72      0.20
  221                253.85      1.62      1.44
  223                 23.18      0.07      0.00
  225                 46.86      0.13      0.01
  229               4467.27      3.17      1.19
  231               4077.08      2.89      1.01
  233               3782.83      2.68      1.02
  235                224.33      0.64      0.16
  237                549.93      1.56      0.84
  238                785.40      2.23      1.62
  239                331.93      0.94      0.33
  240                785.40      2.23      1.62
  241                785.40      2.23      1.62
  243                784.19      1.25      0.40
  245                389.41      0.62      0.11
  247                250.94      0.40      0.05
  249                122.79      0.20      0.01
  251                 57.43      0.12      0.01
  257                 31.69      0.09      0.00
  261                119.10      0.76      0.35
  263                 22.91      0.06      0.00
  269                382.73      1.09      0.43
  271                 -6.98      0.04      0.00
  273                368.01      1.04      0.40
  275                118.35      0.34      0.05
  277                  6.03      0.02      0.00
  281                112.31      0.46      0.11
  283                187.66      0.53      0.11
  285                -96.32      0.27      0.03
  287                110.80      0.45      0.10
  289                -36.64      0.15      0.01
  291                 75.78      0.31      0.05
  293                -57.76      0.37      0.09
  295                 91.34      0.26      0.03
  297                487.18      3.11      4.82
  299                234.07      1.49      1.24
  301                234.07      1.49      1.24
  303                253.11      1.62      1.43
  305                148.22      0.42      0.07
  307                401.33      1.14      0.47
  309                213.68      1.36      1.05
  311               -111.74      0.32      0.04
  313                489.27      1.39      0.67
  315              -2181.86      1.55      0.37
  317                 99.68      0.64      0.26
  319                124.65      0.35      0.05
  321               7427.00      3.37      1.03
  323                232.25      0.66      0.17
  325                137.71      0.88      0.46
  329              13081.82      5.94      2.98
  330                  0.00      0.00      0.00
  333                 -0.00      0.00      0.00
  10                   0.00      0.00      0.00  Pump
  335              13081.82      0.00    -94.11  Pump
   
  Analysis ended Wed May 06 17:22:08 2020
