  Page 1                                    Wed May 06 17:22:41 2020

  ******************************************************************
  *                           E P A N E T                          *
  *                   Hydraulic and Water Quality                  *
  *                   Analysis for Pipe Networks                   *
  *                         Version 2.00.12                        *
  ******************************************************************
  
  Analysis begun Wed May 06 17:22:41 2020

   
  Hydraulic Status:
  -----------------------------------------------------------------------
     0:00:00: Balanced after 6 trials
     0:00:00: Reservoir River is emptying
     0:00:00: Reservoir Lake is closed
     0:00:00: Tank 1 is filling at 13.10 ft
     0:00:00: Tank 2 is emptying at 23.50 ft
     0:00:00: Tank 3 is filling at 29.00 ft
   
     0:05:00: Balanced after 2 trials
   
     0:10:00: Balanced after 2 trials
   
     0:15:00: Balanced after 2 trials
   
     0:20:00: Balanced after 2 trials
   
     0:25:00: Balanced after 2 trials
   
     0:30:00: Balanced after 2 trials
   
     0:35:00: Balanced after 2 trials
   
     0:40:00: Balanced after 2 trials
   
     0:45:00: Balanced after 2 trials
   
     0:50:00: Balanced after 2 trials
   
     0:55:00: Balanced after 2 trials
   
     1:00:00: Pump 10 changed by timer control
     1:00:00: Balanced after 7 trials
     1:00:00: Reservoir Lake is emptying
     1:00:00: Pump 10 changed from closed to open
   
     1:05:00: Balanced after 2 trials
   
     1:10:00: Balanced after 2 trials
   
     1:15:00: Balanced after 2 trials
   
     1:20:00: Balanced after 2 trials
   
     1:25:00: Balanced after 2 trials
   
     1:30:00: Balanced after 2 trials
   
     1:35:00: Balanced after 2 trials
   
     1:40:00: Balanced after 2 trials
   
     1:45:00: Balanced after 2 trials
   
     1:50:00: Balanced after 2 trials
   
     1:55:00: Balanced after 2 trials
   
     2:00:00: Balanced after 4 trials
     2:00:00: Tank 2 is filling at 20.48 ft
   
     2:05:00: Balanced after 1 trials
   
     2:10:00: Balanced after 1 trials
   
     2:15:00: Balanced after 1 trials
   
     2:20:00: Balanced after 1 trials
   
     2:25:00: Balanced after 1 trials
   
     2:30:00: Balanced after 1 trials
   
     2:35:00: Balanced after 1 trials
   
     2:40:00: Balanced after 1 trials
   
     2:45:00: Balanced after 1 trials
   
     2:50:00: Balanced after 1 trials
   
     2:55:00: Balanced after 1 trials
   
     3:00:00: Balanced after 3 trials
     3:00:00: Tank 2 is emptying at 21.47 ft
   
     3:05:00: Balanced after 1 trials
   
     3:10:00: Balanced after 1 trials
   
     3:15:00: Balanced after 1 trials
   
     3:20:00: Balanced after 1 trials
   
     3:25:00: Balanced after 1 trials
   
     3:30:00: Balanced after 1 trials
   
     3:35:00: Balanced after 1 trials
   
     3:40:00: Balanced after 1 trials
   
     3:45:00: Balanced after 1 trials
     3:45:00: Tank 2 is filling at 21.40 ft
   
     3:50:00: Balanced after 1 trials
   
     3:55:00: Balanced after 1 trials
   
     4:00:00: Balanced after 4 trials
   
     4:05:00: Balanced after 1 trials
   
     4:10:00: Balanced after 1 trials
   
     4:15:00: Balanced after 1 trials
   
     4:20:00: Balanced after 1 trials
   
     4:25:00: Balanced after 1 trials
   
     4:30:00: Balanced after 1 trials
   
     4:33:45: Pump 335 changed by Tank 1 control
     4:33:45: Pipe 330 changed by Tank 1 control
     4:33:45: Balanced after 4 trials
     4:33:45: Pipe 330 changed from closed to open
     4:33:45: Pump 335 changed from open to closed
   
     4:35:00: Balanced after 1 trials
   
     4:40:00: Balanced after 2 trials
   
     4:45:00: Balanced after 2 trials
   
     4:50:00: Balanced after 2 trials
   
     4:55:00: Balanced after 2 trials
   
     5:00:00: Balanced after 3 trials
     5:00:00: Tank 3 is emptying at 34.59 ft
   
     5:05:00: Balanced after 2 trials
   
     5:10:00: Balanced after 2 trials
   
     5:15:00: Balanced after 2 trials
   
     5:20:00: Balanced after 2 trials
   
     5:25:00: Balanced after 2 trials
   
     5:30:00: Balanced after 2 trials
   
     5:35:00: Balanced after 2 trials
   
     5:40:00: Balanced after 2 trials
   
     5:45:00: Balanced after 2 trials
   
     5:50:00: Balanced after 2 trials
   
     5:55:00: Balanced after 2 trials
   
     6:00:00: Balanced after 3 trials
     6:00:00: Tank 3 is filling at 34.46 ft
   
     6:05:00: Balanced after 1 trials
   
     6:10:00: Balanced after 1 trials
   
     6:15:00: Balanced after 1 trials
   
     6:20:00: Balanced after 1 trials
   
     6:25:00: Balanced after 1 trials
   
     6:30:00: Balanced after 1 trials
   
     6:35:00: Balanced after 1 trials
   
     6:40:00: Balanced after 1 trials
   
     6:45:00: Balanced after 1 trials
   
     6:50:00: Balanced after 1 trials
   
     6:55:00: Balanced after 1 trials
   
     7:00:00: Balanced after 3 trials
   
     7:05:00: Balanced after 1 trials
   
     7:10:00: Balanced after 1 trials
   
     7:15:00: Balanced after 1 trials
   
     7:20:00: Balanced after 1 trials
   
     7:25:00: Balanced after 1 trials
   
     7:30:00: Balanced after 1 trials
   
     7:35:00: Balanced after 1 trials
   
     7:40:00: Balanced after 1 trials
   
     7:45:00: Balanced after 1 trials
   
     7:50:00: Balanced after 1 trials
   
     7:55:00: Balanced after 1 trials
   
     8:00:00: Balanced after 3 trials
   
     8:05:00: Balanced after 1 trials
   
     8:10:00: Balanced after 1 trials
   
     8:15:00: Balanced after 1 trials
   
     8:20:00: Balanced after 1 trials
   
     8:25:00: Balanced after 1 trials
   
     8:30:00: Balanced after 1 trials
   
     8:35:00: Balanced after 1 trials
   
     8:40:00: Balanced after 1 trials
   
     8:45:00: Balanced after 1 trials
   
     8:50:00: Balanced after 1 trials
   
     8:55:00: Balanced after 1 trials
   
     9:00:00: Balanced after 4 trials
     9:00:00: Tank 3 is emptying at 35.24 ft
   
     9:05:00: Balanced after 2 trials
   
     9:10:00: Balanced after 2 trials
   
     9:15:00: Balanced after 2 trials
   
     9:20:00: Balanced after 2 trials
   
     9:25:00: Balanced after 2 trials
   
     9:30:00: Balanced after 2 trials
   
     9:35:00: Balanced after 2 trials
   
     9:40:00: Balanced after 2 trials
   
     9:45:00: Balanced after 2 trials
   
     9:50:00: Balanced after 2 trials
   
     9:55:00: Balanced after 2 trials
   
    10:00:00: Balanced after 3 trials
   
    10:05:00: Balanced after 2 trials
   
    10:10:00: Balanced after 2 trials
   
    10:15:00: Balanced after 2 trials
   
    10:20:00: Balanced after 2 trials
   
    10:25:00: Balanced after 2 trials
   
    10:30:00: Balanced after 2 trials
   
    10:35:00: Balanced after 2 trials
   
    10:40:00: Balanced after 2 trials
   
    10:45:00: Balanced after 2 trials
   
    10:50:00: Balanced after 1 trials
   
    10:55:00: Balanced after 1 trials
   
    11:00:00: Balanced after 3 trials
    11:00:00: Tank 1 is emptying at 22.08 ft
    11:00:00: Tank 2 is emptying at 27.43 ft
   
    11:05:00: Balanced after 1 trials
   
    11:10:00: Balanced after 1 trials
   
    11:15:00: Balanced after 1 trials
   
    11:20:00: Balanced after 1 trials
   
    11:25:00: Balanced after 1 trials
   
    11:30:00: Balanced after 1 trials
   
    11:35:00: Balanced after 1 trials
   
    11:40:00: Balanced after 1 trials
   
    11:45:00: Balanced after 1 trials
   
    11:50:00: Balanced after 1 trials
   
    11:55:00: Balanced after 1 trials
   
    12:00:00: Balanced after 3 trials
   
    12:05:00: Balanced after 1 trials
   
    12:10:00: Balanced after 1 trials
   
    12:15:00: Balanced after 1 trials
   
    12:20:00: Balanced after 1 trials
   
    12:25:00: Balanced after 1 trials
   
    12:30:00: Balanced after 1 trials
   
    12:35:00: Balanced after 1 trials
   
    12:40:00: Balanced after 1 trials
   
    12:45:00: Balanced after 1 trials
   
    12:50:00: Balanced after 1 trials
   
    12:55:00: Balanced after 1 trials
   
    13:00:00: Balanced after 4 trials
    13:00:00: Tank 1 is filling at 20.96 ft
    13:00:00: Tank 2 is filling at 26.51 ft
   
    13:05:00: Balanced after 2 trials
   
    13:10:00: Balanced after 2 trials
   
    13:15:00: Balanced after 2 trials
   
    13:20:00: Balanced after 2 trials
   
    13:25:00: Balanced after 2 trials
   
    13:30:00: Balanced after 2 trials
   
    13:35:00: Balanced after 2 trials
   
    13:40:00: Balanced after 2 trials
   
    13:45:00: Balanced after 2 trials
   
    13:50:00: Balanced after 2 trials
   
    13:55:00: Balanced after 2 trials
   
    14:00:00: Balanced after 2 trials
   
    14:05:00: Balanced after 2 trials
   
    14:10:00: Balanced after 2 trials
   
    14:15:00: Balanced after 2 trials
   
    14:20:00: Balanced after 2 trials
   
    14:25:00: Balanced after 2 trials
   
    14:30:00: Balanced after 2 trials
   
    14:35:00: Balanced after 2 trials
   
    14:40:00: Balanced after 2 trials
   
    14:45:00: Balanced after 2 trials
   
    14:50:00: Balanced after 2 trials
   
    14:55:00: Balanced after 2 trials
   
    15:00:00: Pump 10 changed by timer control
    15:00:00: Balanced after 4 trials
    15:00:00: Reservoir Lake is closed
    15:00:00: Tank 1 is emptying at 21.37 ft
    15:00:00: Tank 2 is emptying at 26.96 ft
    15:00:00: Pump 10 changed from open to closed
   
    15:05:00: Balanced after 2 trials
   
    15:10:00: Balanced after 2 trials
   
    15:15:00: Balanced after 2 trials
   
    15:20:00: Balanced after 2 trials
   
    15:25:00: Balanced after 2 trials
   
    15:30:00: Balanced after 2 trials
   
    15:35:00: Balanced after 2 trials
   
    15:40:00: Balanced after 2 trials
   
    15:45:00: Balanced after 2 trials
   
    15:50:00: Balanced after 2 trials
   
    15:55:00: Balanced after 2 trials
   
    16:00:00: Balanced after 3 trials
   
    16:05:00: Balanced after 1 trials
   
    16:10:00: Balanced after 1 trials
   
    16:15:00: Balanced after 1 trials
   
    16:20:00: Balanced after 1 trials
   
    16:25:00: Balanced after 1 trials
   
    16:30:00: Balanced after 1 trials
   
    16:35:00: Balanced after 1 trials
   
    16:40:00: Balanced after 1 trials
   
    16:45:00: Balanced after 1 trials
   
    16:50:00: Balanced after 1 trials
   
    16:55:00: Balanced after 1 trials
   
    17:00:00: Balanced after 3 trials
   
    17:05:00: Balanced after 1 trials
   
    17:10:00: Balanced after 1 trials
   
    17:15:00: Balanced after 1 trials
   
    17:20:00: Balanced after 1 trials
   
    17:25:00: Balanced after 1 trials
   
    17:30:00: Balanced after 1 trials
   
    17:35:00: Balanced after 1 trials
   
    17:40:00: Balanced after 1 trials
   
    17:45:00: Balanced after 1 trials
   
    17:50:00: Balanced after 1 trials
   
    17:55:00: Balanced after 1 trials
   
    18:00:00: Balanced after 3 trials
    18:00:00: Tank 2 is filling at 25.75 ft
   
    18:05:00: Balanced after 1 trials
    18:05:00: Tank 2 is emptying at 25.75 ft
   
    18:10:00: Balanced after 1 trials
   
    18:15:00: Balanced after 1 trials
   
    18:20:00: Balanced after 1 trials
   
    18:25:00: Balanced after 1 trials
   
    18:30:00: Balanced after 1 trials
   
    18:35:00: Balanced after 1 trials
   
    18:40:00: Balanced after 1 trials
   
    18:45:00: Balanced after 1 trials
   
    18:50:00: Balanced after 1 trials
   
    18:55:00: Balanced after 1 trials
   
    19:00:00: Balanced after 3 trials
    19:00:00: Tank 2 is filling at 25.67 ft
   
    19:05:00: Balanced after 2 trials
   
    19:10:00: Balanced after 2 trials
   
    19:15:00: Balanced after 2 trials
   
    19:20:00: Balanced after 2 trials
   
    19:25:00: Balanced after 2 trials
   
    19:30:00: Balanced after 2 trials
   
    19:35:00: Balanced after 2 trials
   
    19:40:00: Balanced after 2 trials
   
    19:45:00: Balanced after 2 trials
   
    19:50:00: Balanced after 2 trials
   
    19:55:00: Balanced after 2 trials
   
    20:00:00: Balanced after 4 trials
    20:00:00: Tank 2 is emptying at 26.04 ft
   
    20:05:00: Balanced after 1 trials
   
    20:10:00: Balanced after 1 trials
   
    20:15:00: Balanced after 1 trials
   
    20:16:04: Pump 335 changed by Tank 1 control
    20:16:04: Pipe 330 changed by Tank 1 control
    20:16:04: Balanced after 5 trials
    20:16:04: Tank 1 is filling at 17.10 ft
    20:16:04: Tank 3 is filling at 29.71 ft
    20:16:04: Pipe 330 changed from open to closed
    20:16:04: Pump 335 changed from closed to open
   
    20:20:00: Balanced after 2 trials
   
    20:25:00: Balanced after 2 trials
   
    20:30:00: Balanced after 2 trials
   
    20:35:00: Balanced after 2 trials
   
    20:40:00: Balanced after 2 trials
   
    20:45:00: Balanced after 2 trials
   
    20:50:00: Balanced after 2 trials
   
    20:55:00: Balanced after 2 trials
   
    21:00:00: Balanced after 3 trials
    21:00:00: Tank 1 is emptying at 17.26 ft
   
    21:05:00: Balanced after 2 trials
   
    21:10:00: Balanced after 2 trials
   
    21:15:00: Balanced after 2 trials
   
    21:20:00: Balanced after 2 trials
   
    21:25:00: Balanced after 2 trials
   
    21:30:00: Balanced after 2 trials
   
    21:35:00: Balanced after 2 trials
   
    21:40:00: Balanced after 2 trials
   
    21:45:00: Balanced after 2 trials
   
    21:50:00: Balanced after 2 trials
   
    21:55:00: Balanced after 2 trials
   
    22:00:00: Balanced after 3 trials
   
    22:05:00: Balanced after 2 trials
   
    22:10:00: Balanced after 2 trials
   
    22:15:00: Balanced after 2 trials
   
    22:20:00: Balanced after 2 trials
   
    22:25:00: Balanced after 2 trials
   
    22:30:00: Balanced after 2 trials
   
    22:35:00: Balanced after 2 trials
   
    22:40:00: Balanced after 2 trials
   
    22:45:00: Balanced after 2 trials
   
    22:50:00: Balanced after 2 trials
   
    22:55:00: Balanced after 2 trials
   
    23:00:00: Balanced after 3 trials
   
    23:05:00: Balanced after 2 trials
   
    23:10:00: Balanced after 2 trials
   
    23:15:00: Balanced after 2 trials
   
    23:20:00: Balanced after 2 trials
   
    23:25:00: Balanced after 2 trials
   
    23:30:00: Balanced after 2 trials
   
    23:35:00: Balanced after 2 trials
   
    23:40:00: Balanced after 2 trials
   
    23:45:00: Balanced after 2 trials
   
    23:50:00: Balanced after 2 trials
   
    23:55:00: Balanced after 2 trials
   
    24:00:00: Balanced after 3 trials
   
   
  Node Results at 0:00:00 hrs:
  --------------------------------------------------------
                     Demand      Head  Pressure  Chemical
  Node                  gpm        ft       psi      mg/L
  --------------------------------------------------------
  10                   0.00    145.11     -0.82      0.00
  15                 546.17    132.16     43.40      0.00
  20                   0.00    158.00     12.57      0.00
  35                1600.70    145.17     57.48      0.00
  40                   0.00    145.00      5.68      0.00
  50                   0.00    140.00     10.18      0.00
  60                   0.00    209.00     90.56      0.00
  601                  0.00    302.39    131.03      0.00
  61                   0.00    302.39    131.03      0.00
  101                248.83    145.11     44.68      0.00
  103                174.49    145.08     44.23      0.00
  105                177.33    146.43     51.10      0.00
  107                 71.58    146.42     53.91      0.00
  109                303.13    145.08     54.07      0.00
  111                185.94    145.63     58.77      0.00
  113                 26.21    145.65     62.24      0.00
  115                 68.25    146.48     57.41      0.00
  117                154.20    149.68     58.96      0.00
  119                230.73    157.31     67.30      0.00
  120                  0.00    154.85     67.10      0.00
  121                 54.54    160.84     70.56      0.00
  123                  0.00    165.30     66.86      0.00
  125                 59.74    160.29     64.69      0.00
  127                 23.13    158.70     44.50      0.00
  129                  0.00    158.69     46.66      0.00
  131                 56.00    158.67     66.15      0.00
  139                  7.72    153.94     53.27      0.00
  141                 12.90    150.57     63.51      0.00
  143                  8.12    142.00     63.48      0.00
  145                 36.20    151.50     65.21      0.00
  147                 11.20    152.22     57.94      0.00
  149                 35.46    152.52     59.15      0.00
  151                189.27    155.59     52.90      0.00
  153                 57.86    155.68     38.77      0.00
  157                 67.84    154.79     61.40      0.00
  159                 54.13    151.32     62.97      0.00
  161                 20.70    148.96     62.81      0.00
  163                 12.34    148.49     62.17      0.00
  164                  0.00    148.49     62.17      0.00
  166                  3.41    148.49     65.21      0.00
  167                 19.07    146.55     65.67      0.00
  169                  0.00    146.55     65.67      0.00
  171                 51.54    145.42     64.74      0.00
  173                  0.00    145.39     64.73      0.00
  177                 76.20    145.17     59.43      0.00
  179                  0.00    145.16     59.43      0.00
  181                  0.00    145.17     59.44      0.00
  183                  0.00    145.16     58.13      0.00
  184                  0.00    143.67     55.32      0.00
  185                 33.60    144.38     55.63      0.00
  187                  0.00    145.20     57.50      0.00
  189                141.38    145.54     61.33      0.00
  191                107.29    145.54     52.23      0.00
  193                 93.42    145.64     55.30      0.00
  195                  0.00    145.71     56.42      0.00
  197                 22.32    145.55     53.10      0.00
  199                156.31    139.24     61.20      0.00
  201                 58.44    138.35     59.90      0.00
  203               5089.53    138.14     58.99      0.00
  204                  0.00    144.91     53.69      0.00
  205                 85.62    139.23     51.23      0.00
  206                  0.00    138.40     59.54      0.00
  207                 90.90    138.49     56.11      0.00
  208                  0.00    138.31     53.00      0.00
  209                  1.14    138.14     60.72      0.00
  211                 11.36    138.09     56.80      0.00
  213                 18.26    138.03     56.77      0.00
  215                120.77    137.84     56.69      0.00
  217                 31.73    137.82     57.12      0.00
  219                 54.13    137.81     57.98      0.00
  225                 29.87    137.82     56.25      0.00
  229                 84.08    137.98     55.24      0.00
  231                 21.59    137.97     57.62      0.00
  237                 20.45    138.11     53.78      0.00
  239                 58.44    138.14     54.22      0.00
  241                  0.00    138.14     54.23      0.00
  243                  5.69    138.14     53.79      0.00
  247                 92.20    138.17     52.07      0.00
  249                  0.00    138.17     52.07      0.00
  251                 31.65    138.22     46.89      0.00
  253                 71.42    138.60     44.45      0.00
  255                 52.91    138.65     48.38      0.00
  257                  0.00    151.68     58.36      0.00
  259                  0.00    151.24     54.70      0.00
  261                  0.00    149.63     64.84      0.00
  263                  0.00    149.47     64.76      0.00
  265                  0.00    147.17     63.77      0.00
  267                  0.00    145.65     54.01      0.00
  269                  0.00    145.92     63.23      0.00
  271                  0.00    145.24     60.33      0.00
  273                  0.00    139.22     56.86      0.00
  275                  0.00    138.41     55.64      0.00
  River           -13163.61    220.00      0.00      0.00  Reservoir
  Lake                 0.00    167.00      0.00      0.00  Reservoir
  1                  206.93    145.00      5.68      0.00  Tank
  2                 -460.14    140.00     10.18      0.00  Tank
  3                 2187.39    158.00     12.57      0.00  Tank
   
   
  Link Results at 0:00:00 hrs:
  ----------------------------------------------
                       Flow  Velocity  Headloss
  Link                  gpm       fps   /1000ft
  ----------------------------------------------
  20               -2187.39      0.09      0.00
  40                -206.93      0.01      0.00
  50                 460.14      0.02      0.00
  60               13163.61      9.34      8.93
  101                  0.00      0.00      0.00
  103                176.11      0.28      0.03
  105               -424.94      1.21      0.52
  107                 39.17      0.11      0.01
  109                  1.62      0.00      0.00
  111               -301.52      0.86      0.28
  112                513.60      1.46      0.74
  113                -58.50      0.17      0.01
  114                129.89      0.83      0.42
  115                -32.41      0.21      0.03
  116                 45.18      0.13      0.01
  117                641.45      1.82      1.11
  119               -744.15      2.11      1.47
  120               1168.08      3.31      3.38
  121               1047.67      2.97      2.76
  122                371.71      2.37      2.92
  123               9921.51      4.50      1.76
  125              13163.61      5.97      2.97
  129               2815.85      2.00      0.59
  131               2546.61      1.81      0.49
  133              -2187.39      2.23      0.90
  135                336.08      0.24      0.01
  137                 56.00      0.09      0.00
  145                280.08      1.79      1.73
  147                272.36      1.74      1.64
  149               -554.29      3.54      6.12
  151               -546.17      3.49      5.96
  153                294.83      0.84      0.26
  155                331.03      0.94      0.33
  159               -342.23      0.97      0.35
  161               -377.69      2.41      3.01
  163               -151.64      0.43      0.08
  169                209.51      1.34      1.01
  171                415.31      1.18      0.50
  173               8107.38      3.68      1.21
  175               8039.54      3.65      1.19
  177               7985.41      3.62      1.18
  179               7713.31      3.50      1.11
  180                  3.41      0.01      0.00
  181                  3.41      0.01      0.00
  183               7493.32      3.40      1.05
  185                -19.07      0.12      0.01
  186                370.01      2.36      2.90
  187               6875.14      3.12      0.89
  189               5127.26      2.33      0.52
  191              -1696.34      1.20      0.23
  193              -1600.70      1.14      0.21
  195                242.53      0.69      0.18
  197                166.33      0.47      0.09
  199                -40.60      0.12      0.01
  201               -206.93      0.59      0.14
  202                599.08      3.82      7.07
  203                262.66      1.68      1.54
  204                599.08      1.70      0.98
  205                370.01      1.05      0.40
  207                303.27      0.86      0.28
  209                168.29      1.07      0.67
  211                599.11      1.70      0.98
  213                201.73      0.57      0.13
  215                160.71      0.46      0.09
  217               -246.70      0.70      0.19
  219               -251.41      0.71      0.20
  221                251.41      1.60      1.42
  223                 62.32      0.18      0.01
  225                 84.64      0.24      0.03
  229               5127.26      3.64      1.54
  231               4897.17      3.47      1.41
  233               5089.53      3.61      1.76
  235                 73.78      0.21      0.02
  237                466.12      1.32      0.62
  238                245.53      0.70      0.19
  239               -129.69      0.37      0.06
  240                245.53      0.70      0.19
  241                245.53      0.70      0.19
  243                244.39      0.39      0.05
  245                281.93      0.45      0.06
  247                236.49      0.38      0.04
  249                115.73      0.18      0.01
  251                 54.13      0.11      0.01
  257                 29.87      0.08      0.00
  261                 27.18      0.17      0.02
  263                 21.59      0.06      0.00
  269                -48.90      0.14      0.01
  271                 78.49      0.50      0.16
  273               -147.83      0.42      0.07
  275                -73.75      0.21      0.02
  277                  5.69      0.02      0.00
  281                -79.44      0.32      0.06
  283               -132.52      0.38      0.06
  285                 38.59      0.11      0.01
  287               -210.23      0.86      0.34
  289                460.14      1.88      1.46
  291                 71.42      0.29      0.05
  293                125.58      0.80      0.39
  295                -93.93      0.27      0.03
  297                492.13      3.14      4.91
  299                236.44      1.51      1.26
  301                236.44      1.51      1.26
  303                255.69      1.63      1.46
  305                149.32      0.42      0.07
  307                405.01      1.15      0.48
  309                204.24      1.30      0.96
  311                -43.53      0.12      0.01
  313                452.22      1.28      0.58
  315              -1843.23      1.31      0.27
  317                121.11      0.77      0.37
  319                -47.33      0.13      0.01
  321               7697.56      3.49      1.10
  323               -250.80      0.71      0.20
  325                146.89      0.94      0.52
  329              13163.61      5.97      3.01
  330                  0.00      0.00      0.00
  333                 -0.00      0.00      0.00
  10                   0.00      0.00      0.00  Pump
  335              13163.61      0.00    -93.39  Pump
   
   
  Node Results at 0:05:00 hrs:
  --------------------------------------------------------
                     Demand      Head  Pressure  Chemical
  Node                  gpm        ft       psi      mg/L
  --------------------------------------------------------
  10                   0.00    145.14     -0.81      0.00
  15                 546.17    132.21     43.42      0.00
  20                   0.00    158.07     12.60      0.00
  35                1600.70    145.19     57.49      0.00
  40                   0.00    145.02      5.69      0.00
  50                   0.00    139.84     10.11      0.00
  60                   0.00    209.00     90.56      0.00
  601                  0.00    302.41    131.03      0.00
  61                   0.00    302.41    131.03      0.00
  101                248.83    145.14     44.69      0.00
  103                174.49    145.10     44.24      0.00
  105                177.33    146.46     51.11      0.00
  107                 71.58    146.45     53.92      0.00
  109                303.13    145.10     54.08      0.00
  111                185.94    145.65     58.78      0.00
  113                 26.21    145.67     62.25      0.00
  115                 68.25    146.51     57.42      0.00
  117                154.20    149.71     58.98      0.00
  119                230.73    157.36     67.32      0.00
  120                  0.00    154.89     67.11      0.00
  121                 54.54    160.88     70.58      0.00
  123                  0.00    165.34     66.88      0.00
  125                 59.74    160.34     64.71      0.00
  127                 23.13    158.77     44.53      0.00
  129                  0.00    158.76     46.69      0.00
  131                 56.00    158.74     66.18      0.00
  139                  7.72    153.99     53.29      0.00
  141                 12.90    150.62     63.53      0.00
  143                  8.12    142.05     63.50      0.00
  145                 36.20    151.55     65.23      0.00
  147                 11.20    152.26     57.96      0.00
  149                 35.46    152.57     59.18      0.00
  151                189.27    155.64     52.92      0.00
  153                 57.86    155.73     38.79      0.00
  157                 67.84    154.83     61.41      0.00
  159                 54.13    151.35     62.98      0.00
  161                 20.70    148.99     62.82      0.00
  163                 12.34    148.52     62.19      0.00
  164                  0.00    148.52     62.19      0.00
  166                  3.41    148.52     65.22      0.00
  167                 19.07    146.57     65.68      0.00
  169                  0.00    146.57     65.68      0.00
  171                 51.54    145.44     64.75      0.00
  173                  0.00    145.41     64.74      0.00
  177                 76.20    145.19     59.44      0.00
  179                  0.00    145.18     59.44      0.00
  181                  0.00    145.19     59.45      0.00
  183                  0.00    145.19     58.14      0.00
  184                  0.00    143.69     55.33      0.00
  185                 33.60    144.40     55.64      0.00
  187                  0.00    145.22     57.51      0.00
  189                141.38    145.56     61.34      0.00
  191                107.29    145.56     52.24      0.00
  193                 93.42    145.66     55.31      0.00
  195                  0.00    145.73     56.43      0.00
  197                 22.32    145.58     53.11      0.00
  199                156.31    139.24     61.20      0.00
  201                 58.44    138.34     59.90      0.00
  203               5089.53    138.13     58.99      0.00
  204                  0.00    144.93     53.70      0.00
  205                 85.62    139.23     51.23      0.00
  206                  0.00    138.38     59.53      0.00
  207                 90.90    138.47     56.10      0.00
  208                  0.00    138.28     52.98      0.00
  209                  1.14    138.10     60.70      0.00
  211                 11.36    138.04     56.78      0.00
  213                 18.26    137.98     56.75      0.00
  215                120.77    137.79     56.67      0.00
  217                 31.73    137.77     57.10      0.00
  219                 54.13    137.76     57.96      0.00
  225                 29.87    137.77     56.23      0.00
  229                 84.08    137.92     55.21      0.00
  231                 21.59    137.92     57.59      0.00
  237                 20.45    138.05     53.75      0.00
  239                 58.44    138.08     54.20      0.00
  241                  0.00    138.08     54.20      0.00
  243                  5.69    138.08     53.76      0.00
  247                 92.20    138.10     52.04      0.00
  249                  0.00    138.10     52.04      0.00
  251                 31.65    138.15     46.86      0.00
  253                 71.42    138.50     44.41      0.00
  255                 52.91    138.55     48.34      0.00
  257                  0.00    151.71     58.37      0.00
  259                  0.00    151.27     54.71      0.00
  261                  0.00    149.66     64.85      0.00
  263                  0.00    149.50     64.78      0.00
  265                  0.00    147.19     63.78      0.00
  267                  0.00    145.67     54.02      0.00
  269                  0.00    145.94     63.24      0.00
  271                  0.00    145.26     60.34      0.00
  273                  0.00    139.22     56.86      0.00
  275                  0.00    138.40     55.64      0.00
  River           -13162.04    220.00      0.00      0.00  Reservoir
  Lake                 0.00    167.00      0.00      0.00  Reservoir
  1                  204.56    145.02      5.69      0.00  Tank
  2                 -448.79    139.84     10.11      0.00  Tank
  3                 2176.85    158.07     12.60      0.00  Tank
   
   
  Link Results at 0:05:00 hrs:
  ----------------------------------------------
                       Flow  Velocity  Headloss
  Link                  gpm       fps   /1000ft
  ----------------------------------------------
  20               -2176.85      0.09      0.00
  40                -204.56      0.01      0.00
  50                 448.79      0.02      0.00
  60               13162.04      9.33      8.93
  101                  0.00      0.00      0.00
  103                176.40      0.28      0.03
  105               -425.24      1.21      0.52
  107                 39.36      0.11      0.01
  109                  1.91      0.00      0.00
  111               -301.22      0.85      0.27
  112                514.25      1.46      0.74
  113                -57.98      0.16      0.01
  114                130.09      0.83      0.42
  115                -32.22      0.21      0.03
  116                 45.91      0.13      0.01
  117                641.93      1.82      1.12
  119               -744.82      2.11      1.47
  120               1168.94      3.32      3.38
  121               1048.45      2.97      2.77
  122                372.01      2.37      2.93
  123               9929.82      4.51      1.76
  125              13162.04      5.97      2.97
  129               2805.68      1.99      0.59
  131               2536.29      1.80      0.49
  133              -2176.85      2.22      0.89
  135                336.31      0.24      0.01
  137                 56.00      0.09      0.00
  145                280.30      1.79      1.73
  147                272.59      1.74      1.65
  149               -554.29      3.54      6.12
  151               -546.17      3.49      5.96
  153                294.61      0.84      0.26
  155                330.80      0.94      0.33
  159               -342.00      0.97      0.35
  161               -377.46      2.41      3.01
  163               -151.79      0.43      0.08
  169                209.66      1.34      1.01
  171                414.94      1.18      0.50
  173               8115.21      3.68      1.21
  175               8047.36      3.65      1.20
  177               7993.23      3.63      1.18
  179               7720.98      3.50      1.11
  180                  3.41      0.01      0.00
  181                  3.41      0.01      0.00
  183               7500.95      3.40      1.05
  185                -19.07      0.12      0.01
  186                370.83      2.37      2.91
  187               6882.61      3.12      0.89
  189               5137.24      2.33      0.52
  191              -1693.83      1.20      0.23
  193              -1600.70      1.14      0.21
  195                240.20      0.68      0.18
  197                163.99      0.47      0.09
  199                -40.57      0.12      0.01
  201               -204.56      0.58      0.13
  202                600.44      3.83      7.10
  203                263.21      1.68      1.54
  204                600.44      1.70      0.99
  205                370.83      1.05      0.40
  207                303.78      0.86      0.28
  209                168.50      1.08      0.68
  211                599.27      1.70      0.98
  213                202.33      0.57      0.13
  215                161.45      0.46      0.09
  217               -246.87      0.70      0.19
  219               -251.55      0.71      0.20
  221                251.55      1.61      1.42
  223                 62.74      0.18      0.02
  225                 85.07      0.24      0.03
  229               5137.24      3.64      1.54
  231               4904.13      3.48      1.42
  233               5089.53      3.61      1.76
  235                 76.80      0.22      0.02
  237                470.18      1.33      0.63
  238                256.88      0.73      0.20
  239               -122.39      0.35      0.05
  240                256.88      0.73      0.20
  241                256.88      0.73      0.20
  243                255.74      0.41      0.05
  245                282.94      0.45      0.06
  247                236.49      0.38      0.04
  249                115.73      0.18      0.01
  251                 54.13      0.11      0.01
  257                 29.87      0.08      0.00
  261                 28.19      0.18      0.02
  263                 21.59      0.06      0.00
  269                -38.56      0.11      0.01
  271                 77.48      0.49      0.16
  273               -136.48      0.39      0.06
  275                -69.50      0.20      0.02
  277                  5.69      0.02      0.00
  281                -75.19      0.31      0.05
  283               -125.42      0.36      0.05
  285                 35.66      0.10      0.00
  287               -203.04      0.83      0.32
  289                448.79      1.83      1.40
  291                 71.42      0.29      0.05
  293                121.42      0.77      0.37
  295                -89.77      0.25      0.03
  297                492.50      3.14      4.92
  299                236.62      1.51      1.27
  301                236.62      1.51      1.27
  303                255.88      1.63      1.46
  305                149.43      0.42      0.07
  307                405.32      1.15      0.48
  309                204.28      1.30      0.96
  311                -42.83      0.12      0.01
  313                452.21      1.28      0.58
  315              -1840.90      1.31      0.27
  317                121.44      0.78      0.37
  319                -44.64      0.13      0.01
  321               7705.24      3.50      1.10
  323               -243.84      0.69      0.19
  325                147.06      0.94      0.52
  329              13162.04      5.97      3.01
  330                  0.00      0.00      0.00
  333                 -0.00      0.00      0.00
  10                   0.00      0.00      0.00  Pump
  335              13162.05      0.00    -93.41  Pump
   
   
  Node Results at 0:10:00 hrs:
  --------------------------------------------------------
                     Demand      Head  Pressure  Chemical
  Node                  gpm        ft       psi      mg/L
  --------------------------------------------------------
  10                   0.00    145.16     -0.80      0.00
  15                 546.17    132.26     43.44      0.00
  20                   0.00    158.14     12.63      0.00
  35                1600.70    145.21     57.50      0.00
  40                   0.00    145.05      5.70      0.00
  50                   0.00    139.69     10.05      0.00
  60                   0.00    209.01     90.56      0.00
  601                  0.00    302.43    131.04      0.00
  61                   0.00    302.43    131.04      0.00
  101                248.83    145.16     44.70      0.00
  103                174.49    145.13     44.25      0.00
  105                177.33    146.48     51.12      0.00
  107                 71.58    146.48     53.94      0.00
  109                303.13    145.13     54.09      0.00
  111                185.94    145.68     58.79      0.00
  113                 26.21    145.70     62.26      0.00
  115                 68.25    146.54     57.43      0.00
  117                154.20    149.74     58.99      0.00
  119                230.73    157.40     67.33      0.00
  120                  0.00    154.92     67.13      0.00
  121                 54.54    160.93     70.60      0.00
  123                  0.00    165.39     66.90      0.00
  125                 59.74    160.39     64.73      0.00
  127                 23.13    158.83     44.56      0.00
  129                  0.00    158.82     46.72      0.00
  131                 56.00    158.80     66.21      0.00
  139                  7.72    154.05     53.32      0.00
  141                 12.90    150.67     63.55      0.00
  143                  8.12    142.10     63.52      0.00
  145                 36.20    151.59     65.25      0.00
  147                 11.20    152.31     57.98      0.00
  149                 35.46    152.62     59.20      0.00
  151                189.27    155.68     52.94      0.00
  153                 57.86    155.77     38.81      0.00
  157                 67.84    154.87     61.43      0.00
  159                 54.13    151.38     62.99      0.00
  161                 20.70    149.02     62.84      0.00
  163                 12.34    148.54     62.20      0.00
  164                  0.00    148.54     62.20      0.00
  166                  3.41    148.54     65.23      0.00
  167                 19.07    146.59     65.69      0.00
  169                  0.00    146.60     65.69      0.00
  171                 51.54    145.46     64.76      0.00
  173                  0.00    145.43     64.75      0.00
  177                 76.20    145.21     59.45      0.00
  179                  0.00    145.20     59.45      0.00
  181                  0.00    145.21     59.45      0.00
  183                  0.00    145.21     58.15      0.00
  184                  0.00    143.70     55.33      0.00
  185                 33.60    144.42     55.64      0.00
  187                  0.00    145.25     57.52      0.00
  189                141.38    145.58     61.35      0.00
  191                107.29    145.58     52.25      0.00
  193                 93.42    145.68     55.33      0.00
  195                  0.00    145.75     56.44      0.00
  197                 22.32    145.60     53.12      0.00
  199                156.31    139.23     61.20      0.00
  201                 58.44    138.34     59.90      0.00
  203               5089.53    138.13     58.98      0.00
  204                  0.00    144.95     53.71      0.00
  205                 85.62    139.22     51.23      0.00
  206                  0.00    138.36     59.52      0.00
  207                 90.90    138.46     56.09      0.00
  208                  0.00    138.25     52.97      0.00
  209                  1.14    138.05     60.68      0.00
  211                 11.36    137.98     56.76      0.00
  213                 18.26    137.92     56.73      0.00
  215                120.77    137.74     56.65      0.00
  217                 31.73    137.72     57.07      0.00
  219                 54.13    137.71     57.94      0.00
  225                 29.87    137.71     56.21      0.00
  229                 84.08    137.87     55.19      0.00
  231                 21.59    137.86     57.57      0.00
  237                 20.45    137.99     53.73      0.00
  239                 58.44    138.02     54.17      0.00
  241                  0.00    138.02     54.17      0.00
  243                  5.69    138.02     53.74      0.00
  247                 92.20    138.04     52.01      0.00
  249                  0.00    138.04     52.01      0.00
  251                 31.65    138.08     46.83      0.00
  253                 71.42    138.41     44.37      0.00
  255                 52.91    138.46     48.29      0.00
  257                  0.00    151.75     58.39      0.00
  259                  0.00    151.30     54.73      0.00
  261                  0.00    149.69     64.86      0.00
  263                  0.00    149.53     64.79      0.00
  265                  0.00    147.22     63.79      0.00
  267                  0.00    145.69     54.03      0.00
  269                  0.00    145.96     63.24      0.00
  271                  0.00    145.28     60.35      0.00
  273                  0.00    139.22     56.86      0.00
  275                  0.00    138.39     55.63      0.00
  River           -13160.49    220.00      0.00      0.00  Reservoir
  Lake                 0.00    167.00      0.00      0.00  Reservoir
  1                  202.24    145.05      5.70      0.00  Tank
  2                 -437.51    139.69     10.05      0.00  Tank
  3                 2166.33    158.14     12.63      0.00  Tank
   
   
  Link Results at 0:10:00 hrs:
  ----------------------------------------------
                       Flow  Velocity  Headloss
  Link                  gpm       fps   /1000ft
  ----------------------------------------------
  20               -2166.33      0.09      0.00
  40                -202.24      0.01      0.00
  50                 437.51      0.02      0.00
  60               13160.49      9.33      8.93
  101                  0.00      0.00      0.00
  103                176.70      0.28      0.03
  105               -425.53      1.21      0.52
  107                 39.55      0.11      0.01
  109                  2.21      0.00      0.00
  111               -300.93      0.85      0.27
  112                514.91      1.46      0.74
  113                -57.45      0.16      0.01
  114                130.30      0.83      0.42
  115                -32.03      0.20      0.03
  116                 46.63      0.13      0.01
  117                642.42      1.82      1.12
  119               -745.49      2.11      1.47
  120               1169.80      3.32      3.39
  121               1049.24      2.98      2.77
  122                372.31      2.38      2.93
  123               9938.11      4.51      1.77
  125              13160.49      5.97      2.97
  129               2795.53      1.98      0.58
  131               2525.99      1.79      0.48
  133              -2166.33      2.21      0.88
  135                336.53      0.24      0.01
  137                 56.00      0.09      0.00
  145                280.53      1.79      1.73
  147                272.81      1.74      1.65
  149               -554.29      3.54      6.12
  151               -546.17      3.49      5.96
  153                294.38      0.84      0.26
  155                330.58      0.94      0.33
  159               -341.78      0.97      0.35
  161               -377.24      2.41      3.00
  163               -151.94      0.43      0.08
  169                209.80      1.34      1.01
  171                414.57      1.18      0.50
  173               8123.01      3.69      1.22
  175               8055.17      3.66      1.20
  177               8001.04      3.63      1.18
  179               7728.64      3.51      1.11
  180                  3.41      0.01      0.00
  181                  3.41      0.01      0.00
  183               7508.57      3.41      1.05
  185                -19.07      0.12      0.01
  186                371.65      2.37      2.92
  187               6890.06      3.13      0.90
  189               5147.16      2.34      0.52
  191              -1691.37      1.20      0.23
  193              -1600.70      1.14      0.21
  195                237.91      0.67      0.18
  197                161.70      0.46      0.09
  199                -40.54      0.12      0.01
  201               -202.24      0.57      0.13
  202                601.80      3.84      7.13
  203                263.75      1.68      1.55
  204                601.80      1.71      0.99
  205                371.65      1.05      0.41
  207                304.29      0.86      0.28
  209                168.72      1.08      0.68
  211                599.43      1.70      0.98
  213                202.93      0.58      0.13
  215                162.19      0.46      0.09
  217               -247.05      0.70      0.19
  219               -251.70      0.71      0.20
  221                251.70      1.61      1.42
  223                 63.17      0.18      0.02
  225                 85.49      0.24      0.03
  229               5147.16      3.65      1.55
  231               4911.15      3.48      1.42
  233               5089.53      3.61      1.76
  235                 79.70      0.23      0.02
  237                474.10      1.34      0.64
  238                268.16      0.76      0.22
  239               -115.04      0.33      0.05
  240                268.16      0.76      0.22
  241                268.16      0.76      0.22
  243                267.02      0.43      0.05
  245                283.75      0.45      0.06
  247                236.49      0.38      0.04
  249                115.73      0.18      0.01
  251                 54.13      0.11      0.01
  257                 29.87      0.08      0.00
  261                 28.99      0.19      0.03
  263                 21.59      0.06      0.00
  269                -28.09      0.08      0.00
  271                 76.67      0.49      0.16
  273               -125.21      0.36      0.05
  275                -65.28      0.19      0.02
  277                  5.69      0.02      0.00
  281                -70.96      0.29      0.05
  283               -118.37      0.34      0.05
  285                 32.74      0.09      0.00
  287               -195.90      0.80      0.30
  289                437.51      1.79      1.33
  291                 71.42      0.29      0.05
  293                117.28      0.75      0.35
  295                -85.63      0.24      0.03
  297                492.87      3.15      4.93
  299                236.79      1.51      1.27
  301                236.79      1.51      1.27
  303                256.07      1.63      1.47
  305                149.55      0.42      0.08
  307                405.62      1.15      0.48
  309                204.32      1.30      0.96
  311                -42.13      0.12      0.01
  313                452.20      1.28      0.58
  315              -1838.61      1.30      0.27
  317                121.78      0.78      0.37
  319                -42.07      0.12      0.01
  321               7712.90      3.50      1.10
  323               -236.82      0.67      0.18
  325                147.24      0.94      0.53
  329              13160.49      5.97      3.01
  330                  0.00      0.00      0.00
  333                 -0.00      0.00      0.00
  10                   0.00      0.00      0.00  Pump
  335              13160.49      0.00    -93.42  Pump
   
   
  Node Results at 0:15:00 hrs:
  --------------------------------------------------------
                     Demand      Head  Pressure  Chemical
  Node                  gpm        ft       psi      mg/L
  --------------------------------------------------------
  10                   0.00    145.19     -0.79      0.00
  15                 546.17    132.31     43.47      0.00
  20                   0.00    158.21     12.66      0.00
  35                1600.70    145.23     57.51      0.00
  40                   0.00    145.07      5.71      0.00
  50                   0.00    139.54      9.98      0.00
  60                   0.00    209.01     90.56      0.00
  601                  0.00    302.44    131.05      0.00
  61                   0.00    302.44    131.05      0.00
  101                248.83    145.19     44.71      0.00
  103                174.49    145.15     44.26      0.00
  105                177.33    146.51     51.13      0.00
  107                 71.58    146.50     53.95      0.00
  109                303.13    145.15     54.10      0.00
  111                185.94    145.70     58.80      0.00
  113                 26.21    145.72     62.27      0.00
  115                 68.25    146.56     57.44      0.00
  117                154.20    149.77     59.00      0.00
  119                230.73    157.44     67.35      0.00
  120                  0.00    154.96     67.15      0.00
  121                 54.54    160.98     70.62      0.00
  123                  0.00    165.44     66.92      0.00
  125                 59.74    160.44     64.75      0.00
  127                 23.13    158.89     44.58      0.00
  129                  0.00    158.88     46.75      0.00
  131                 56.00    158.86     66.24      0.00
  139                  7.72    154.10     53.34      0.00
  141                 12.90    150.72     63.57      0.00
  143                  8.12    142.15     63.54      0.00
  145                 36.20    151.64     65.27      0.00
  147                 11.20    152.36     58.00      0.00
  149                 35.46    152.67     59.22      0.00
  151                189.27    155.73     52.96      0.00
  153                 57.86    155.82     38.83      0.00
  157                 67.84    154.91     61.44      0.00
  159                 54.13    151.41     63.01      0.00
  161                 20.70    149.04     62.85      0.00
  163                 12.34    148.57     62.21      0.00
  164                  0.00    148.57     62.21      0.00
  166                  3.41    148.57     65.24      0.00
  167                 19.07    146.62     65.70      0.00
  169                  0.00    146.62     65.70      0.00
  171                 51.54    145.48     64.77      0.00
  173                  0.00    145.45     64.76      0.00
  177                 76.20    145.23     59.46      0.00
  179                  0.00    145.23     59.46      0.00
  181                  0.00    145.23     59.46      0.00
  183                  0.00    145.23     58.16      0.00
  184                  0.00    143.72     55.34      0.00
  185                 33.60    144.43     55.65      0.00
  187                  0.00    145.27     57.53      0.00
  189                141.38    145.61     61.36      0.00
  191                107.29    145.61     52.26      0.00
  193                 93.42    145.71     55.33      0.00
  195                  0.00    145.78     56.45      0.00
  197                 22.32    145.62     53.13      0.00
  199                156.31    139.23     61.20      0.00
  201                 58.44    138.33     59.90      0.00
  203               5089.53    138.12     58.98      0.00
  204                  0.00    144.97     53.72      0.00
  205                 85.62    139.22     51.22      0.00
  206                  0.00    138.34     59.51      0.00
  207                 90.90    138.44     56.09      0.00
  208                  0.00    138.21     52.96      0.00
  209                  1.14    138.00     60.66      0.00
  211                 11.36    137.93     56.73      0.00
  213                 18.26    137.87     56.71      0.00
  215                120.77    137.69     56.63      0.00
  217                 31.73    137.67     57.05      0.00
  219                 54.13    137.66     57.91      0.00
  225                 29.87    137.66     56.18      0.00
  229                 84.08    137.81     55.16      0.00
  231                 21.59    137.81     57.55      0.00
  237                 20.45    137.93     53.70      0.00
  239                 58.44    137.96     54.14      0.00
  241                  0.00    137.96     54.14      0.00
  243                  5.69    137.96     53.71      0.00
  247                 92.20    137.98     51.99      0.00
  249                  0.00    137.98     51.99      0.00
  251                 31.65    138.01     46.80      0.00
  253                 71.42    138.32     44.33      0.00
  255                 52.91    138.37     48.26      0.00
  257                  0.00    151.78     58.40      0.00
  259                  0.00    151.34     54.74      0.00
  261                  0.00    149.73     64.88      0.00
  263                  0.00    149.56     64.80      0.00
  265                  0.00    147.24     63.80      0.00
  267                  0.00    145.71     54.04      0.00
  269                  0.00    145.98     63.25      0.00
  271                  0.00    145.30     60.36      0.00
  273                  0.00    139.21     56.85      0.00
  275                  0.00    138.38     55.63      0.00
  River           -13158.93    220.00      0.00      0.00  Reservoir
  Lake                 0.00    167.00      0.00      0.00  Reservoir
  1                  199.97    145.07      5.71      0.00  Tank
  2                 -426.30    139.54      9.98      0.00  Tank
  3                 2155.84    158.21     12.66      0.00  Tank
   
   
  Link Results at 0:15:00 hrs:
  ----------------------------------------------
                       Flow  Velocity  Headloss
  Link                  gpm       fps   /1000ft
  ----------------------------------------------
  20               -2155.84      0.09      0.00
  40                -199.97      0.01      0.00
  50                 426.30      0.02      0.00
  60               13158.93      9.33      8.93
  101                  0.00      0.00      0.00
  103                176.99      0.28      0.03
  105               -425.82      1.21      0.52
  107                 39.74      0.11      0.01
  109                  2.50      0.00      0.00
  111               -300.64      0.85      0.27
  112                515.57      1.46      0.74
  113                -56.93      0.16      0.01
  114                130.50      0.83      0.42
  115                -31.84      0.20      0.03
  116                 47.36      0.13      0.01
  117                642.90      1.82      1.12
  119               -746.15      2.12      1.47
  120               1170.65      3.32      3.39
  121               1050.02      2.98      2.77
  122                372.60      2.38      2.93
  123               9946.38      4.51      1.77
  125              13158.93      5.97      2.97
  129               2785.41      1.98      0.58
  131               2515.72      1.78      0.48
  133              -2155.84      2.20      0.87
  135                336.75      0.24      0.01
  137                 56.00      0.09      0.00
  145                280.75      1.79      1.74
  147                273.03      1.74      1.65
  149               -554.29      3.54      6.12
  151               -546.17      3.49      5.96
  153                294.16      0.83      0.26
  155                330.36      0.94      0.33
  159               -341.56      0.97      0.35
  161               -377.02      2.41      3.00
  163               -152.09      0.43      0.08
  169                209.95      1.34      1.01
  171                414.20      1.17      0.50
  173               8130.80      3.69      1.22
  175               8062.96      3.66      1.20
  177               8008.83      3.64      1.18
  179               7736.28      3.51      1.11
  180                  3.41      0.01      0.00
  181                  3.41      0.01      0.00
  183               7516.17      3.41      1.05
  185                -19.07      0.12      0.01
  186                372.46      2.38      2.93
  187               6897.50      3.13      0.90
  189               5157.03      2.34      0.52
  191              -1688.94      1.20      0.23
  193              -1600.70      1.14      0.21
  195                235.65      0.67      0.17
  197                159.45      0.45      0.08
  199                -40.52      0.11      0.01
  201               -199.97      0.57      0.13
  202                603.14      3.85      7.16
  203                264.29      1.69      1.55
  204                603.14      1.71      0.99
  205                372.46      1.06      0.41
  207                304.81      0.86      0.28
  209                168.94      1.08      0.68
  211                599.60      1.70      0.98
  213                203.52      0.58      0.13
  215                162.93      0.46      0.09
  217               -247.22      0.70      0.19
  219               -251.85      0.71      0.20
  221                251.85      1.61      1.42
  223                 63.60      0.18      0.02
  225                 85.92      0.24      0.03
  229               5157.03      3.66      1.55
  231               4918.23      3.49      1.42
  233               5089.53      3.61      1.76
  235                 82.48      0.23      0.02
  237                477.90      1.36      0.65
  238                279.37      0.79      0.24
  239               -107.63      0.31      0.04
  240                279.37      0.79      0.24
  241                279.37      0.79      0.24
  243                278.23      0.44      0.06
  245                284.33      0.45      0.06
  247                236.49      0.38      0.04
  249                115.73      0.18      0.01
  251                 54.13      0.11      0.01
  257                 29.87      0.08      0.00
  261                 29.58      0.19      0.03
  263                 21.59      0.06      0.00
  269                -17.46      0.05      0.00
  271                 76.09      0.49      0.15
  273               -114.00      0.32      0.05
  275                -61.08      0.17      0.01
  277                  5.69      0.02      0.00
  281                -66.76      0.27      0.04
  283               -111.36      0.32      0.04
  285                 29.84      0.08      0.00
  287               -188.80      0.77      0.28
  289                426.30      1.74      1.27
  291                 71.42      0.29      0.05
  293                113.17      0.72      0.32
  295                -81.52      0.23      0.02
  297                493.23      3.15      4.93
  299                236.97      1.51      1.27
  301                236.97      1.51      1.27
  303                256.26      1.64      1.47
  305                149.67      0.42      0.08
  307                405.93      1.15      0.48
  309                204.36      1.30      0.96
  311                -41.43      0.12      0.01
  313                452.19      1.28      0.58
  315              -1836.35      1.30      0.27
  317                122.11      0.78      0.37
  319                -39.62      0.11      0.01
  321               7720.54      3.50      1.11
  323               -229.73      0.65      0.17
  325                147.41      0.94      0.53
  329              13158.93      5.97      3.01
  330                  0.00      0.00      0.00
  333                 -0.00      0.00      0.00
  10                   0.00      0.00      0.00  Pump
  335              13158.93      0.00    -93.43  Pump
   
   
  Node Results at 0:20:00 hrs:
  --------------------------------------------------------
                     Demand      Head  Pressure  Chemical
  Node                  gpm        ft       psi      mg/L
  --------------------------------------------------------
  10                   0.00    145.21     -0.78      0.00
  15                 546.17    132.36     43.49      0.00
  20                   0.00    158.27     12.68      0.00
  35                1600.70    145.25     57.52      0.00
  40                   0.00    145.10      5.72      0.00
  50                   0.00    139.40      9.92      0.00
  60                   0.00    209.01     90.56      0.00
  601                  0.00    302.46    131.06      0.00
  61                   0.00    302.46    131.06      0.00
  101                248.83    145.21     44.72      0.00
  103                174.49    145.18     44.27      0.00
  105                177.33    146.54     51.15      0.00
  107                 71.58    146.53     53.96      0.00
  109                303.13    145.18     54.11      0.00
  111                185.94    145.72     58.81      0.00
  113                 26.21    145.74     62.28      0.00
  115                 68.25    146.59     57.45      0.00
  117                154.20    149.80     59.02      0.00
  119                230.73    157.48     67.37      0.00
  120                  0.00    155.00     67.16      0.00
  121                 54.54    161.03     70.64      0.00
  123                  0.00    165.48     66.94      0.00
  125                 59.74    160.49     64.77      0.00
  127                 23.13    158.95     44.61      0.00
  129                  0.00    158.94     46.77      0.00
  131                 56.00    158.92     66.26      0.00
  139                  7.72    154.16     53.36      0.00
  141                 12.90    150.77     63.60      0.00
  143                  8.12    142.20     63.56      0.00
  145                 36.20    151.69     65.29      0.00
  147                 11.20    152.41     58.02      0.00
  149                 35.46    152.71     59.24      0.00
  151                189.27    155.77     52.98      0.00
  153                 57.86    155.86     38.85      0.00
  157                 67.84    154.94     61.46      0.00
  159                 54.13    151.44     63.02      0.00
  161                 20.70    149.07     62.86      0.00
  163                 12.34    148.59     62.22      0.00
  164                  0.00    148.59     62.22      0.00
  166                  3.41    148.59     65.25      0.00
  167                 19.07    146.64     65.70      0.00
  169                  0.00    146.64     65.71      0.00
  171                 51.54    145.50     64.78      0.00
  173                  0.00    145.47     64.77      0.00
  177                 76.20    145.25     59.47      0.00
  179                  0.00    145.25     59.47      0.00
  181                  0.00    145.25     59.47      0.00
  183                  0.00    145.25     58.17      0.00
  184                  0.00    143.73     55.35      0.00
  185                 33.60    144.45     55.66      0.00
  187                  0.00    145.29     57.54      0.00
  189                141.38    145.63     61.37      0.00
  191                107.29    145.63     52.27      0.00
  193                 93.42    145.73     55.34      0.00
  195                  0.00    145.80     56.46      0.00
  197                 22.32    145.65     53.14      0.00
  199                156.31    139.23     61.19      0.00
  201                 58.44    138.33     59.89      0.00
  203               5089.53    138.12     58.98      0.00
  204                  0.00    144.99     53.73      0.00
  205                 85.62    139.21     51.22      0.00
  206                  0.00    138.31     59.50      0.00
  207                 90.90    138.43     56.08      0.00
  208                  0.00    138.18     52.94      0.00
  209                  1.14    137.95     60.64      0.00
  211                 11.36    137.88     56.71      0.00
  213                 18.26    137.82     56.68      0.00
  215                120.77    137.63     56.60      0.00
  217                 31.73    137.61     57.03      0.00
  219                 54.13    137.60     57.89      0.00
  225                 29.87    137.61     56.16      0.00
  229                 84.08    137.76     55.14      0.00
  231                 21.59    137.75     57.52      0.00
  237                 20.45    137.88     53.68      0.00
  239                 58.44    137.90     54.12      0.00
  241                  0.00    137.90     54.12      0.00
  243                  5.69    137.90     53.68      0.00
  247                 92.20    137.91     51.96      0.00
  249                  0.00    137.91     51.96      0.00
  251                 31.65    137.95     46.77      0.00
  253                 71.42    138.23     44.29      0.00
  255                 52.91    138.28     48.22      0.00
  257                  0.00    151.81     58.41      0.00
  259                  0.00    151.37     54.76      0.00
  261                  0.00    149.76     64.89      0.00
  263                  0.00    149.59     64.82      0.00
  265                  0.00    147.26     63.81      0.00
  267                  0.00    145.74     54.05      0.00
  269                  0.00    146.00     63.26      0.00
  271                  0.00    145.32     60.37      0.00
  273                  0.00    139.21     56.85      0.00
  275                  0.00    138.38     55.63      0.00
  River           -13157.39    220.00      0.00      0.00  Reservoir
  Lake                 0.00    167.00      0.00      0.00  Reservoir
  1                  197.73    145.10      5.72      0.00  Tank
  2                 -415.13    139.40      9.92      0.00  Tank
  3                 2145.37    158.27     12.68      0.00  Tank
   
   
  Link Results at 0:20:00 hrs:
  ----------------------------------------------
                       Flow  Velocity  Headloss
  Link                  gpm       fps   /1000ft
  ----------------------------------------------
  20               -2145.37      0.09      0.00
  40                -197.73      0.01      0.00
  50                 415.13      0.02      0.00
  60               13157.39      9.33      8.93
  101                  0.00      0.00      0.00
  103                177.28      0.28      0.03
  105               -426.12      1.21      0.52
  107                 39.93      0.11      0.01
  109                  2.79      0.00      0.00
  111               -300.34      0.85      0.27
  112                516.22      1.46      0.74
  113                -56.40      0.16      0.01
  114                130.70      0.83      0.42
  115                -31.65      0.20      0.03
  116                 48.08      0.14      0.01
  117                643.38      1.83      1.12
  119               -746.82      2.12      1.48
  120               1171.51      3.32      3.40
  121               1050.80      2.98      2.78
  122                372.89      2.38      2.94
  123               9954.64      4.52      1.77
  125              13157.39      5.97      2.97
  129               2775.31      1.97      0.57
  131               2505.48      1.78      0.47
  133              -2145.37      2.19      0.87
  135                336.97      0.24      0.01
  137                 56.00      0.09      0.00
  145                280.97      1.79      1.74
  147                273.25      1.74      1.65
  149               -554.29      3.54      6.12
  151               -546.17      3.49      5.96
  153                293.94      0.83      0.26
  155                330.14      0.94      0.33
  159               -341.34      0.97      0.35
  161               -376.80      2.41      3.00
  163               -152.24      0.43      0.08
  169                210.10      1.34      1.02
  171                413.83      1.17      0.49
  173               8138.58      3.69      1.22
  175               8070.73      3.66      1.20
  177               8016.60      3.64      1.19
  179               7743.91      3.51      1.11
  180                  3.41      0.01      0.00
  181                  3.41      0.01      0.00
  183               7523.76      3.41      1.06
  185                -19.07      0.12      0.01
  186                373.27      2.38      2.94
  187               6904.92      3.13      0.90
  189               5166.86      2.35      0.53
  191              -1686.53      1.20      0.23
  193              -1600.70      1.14      0.21
  195                233.42      0.66      0.17
  197                157.21      0.45      0.08
  199                -40.51      0.11      0.01
  201               -197.73      0.56      0.13
  202                604.48      3.86      7.19
  203                264.82      1.69      1.56
  204                604.48      1.71      1.00
  205                373.27      1.06      0.41
  207                305.33      0.87      0.28
  209                169.15      1.08      0.68
  211                599.77      1.70      0.98
  213                204.12      0.58      0.13
  215                163.68      0.46      0.09
  217               -247.39      0.70      0.19
  219               -251.99      0.71      0.20
  221                251.99      1.61      1.42
  223                 64.02      0.18      0.02
  225                 86.34      0.24      0.03
  229               5166.86      3.66      1.56
  231               4925.40      3.49      1.43
  233               5089.53      3.61      1.76
  235                 85.14      0.24      0.03
  237                481.56      1.37      0.65
  238                290.54      0.82      0.26
  239               -100.13      0.28      0.04
  240                290.54      0.82      0.26
  241                290.54      0.82      0.26
  243                289.40      0.46      0.06
  245                284.68      0.45      0.06
  247                236.49      0.38      0.04
  249                115.73      0.18      0.01
  251                 54.13      0.11      0.01
  257                 29.87      0.08      0.00
  261                 29.92      0.19      0.03
  263                 21.59      0.06      0.00
  269                 -6.64      0.02      0.00
  271                 75.74      0.48      0.15
  273               -102.83      0.29      0.04
  275                -56.90      0.16      0.01
  277                  5.69      0.02      0.00
  281                -62.58      0.26      0.04
  283               -104.37      0.30      0.04
  285                 26.95      0.08      0.00
  287               -181.73      0.74      0.26
  289                415.13      1.70      1.21
  291                 71.42      0.29      0.05
  293                109.08      0.70      0.30
  295                -77.43      0.22      0.02
  297                493.60      3.15      4.94
  299                237.15      1.51      1.27
  301                237.15      1.51      1.27
  303                256.45      1.64      1.47
  305                149.78      0.42      0.08
  307                406.24      1.15      0.48
  309                204.40      1.30      0.97
  311                -40.73      0.12      0.01
  313                452.18      1.28      0.58
  315              -1834.12      1.30      0.27
  317                122.44      0.78      0.37
  319                -37.30      0.11      0.01
  321               7728.17      3.51      1.11
  323               -222.57      0.63      0.16
  325                147.59      0.94      0.53
  329              13157.39      5.97      3.01
  330                  0.00      0.00      0.00
  333                 -0.00      0.00      0.00
  10                   0.00      0.00      0.00  Pump
  335              13157.39      0.00    -93.45  Pump
   
   
  Node Results at 0:25:00 hrs:
  --------------------------------------------------------
                     Demand      Head  Pressure  Chemical
  Node                  gpm        ft       psi      mg/L
  --------------------------------------------------------
  10                   0.00    145.24     -0.76      0.00
  15                 546.17    132.41     43.51      0.00
  20                   0.00    158.34     12.71      0.00
  35                1600.70    145.27     57.53      0.00
  40                   0.00    145.12      5.73      0.00
  50                   0.00    139.26      9.86      0.00
  60                   0.00    209.01     90.57      0.00
  601                  0.00    302.47    131.06      0.00
  61                   0.00    302.47    131.06      0.00
  101                248.83    145.24     44.73      0.00
  103                174.49    145.20     44.28      0.00
  105                177.33    146.56     51.16      0.00
  107                 71.58    146.55     53.97      0.00
  109                303.13    145.20     54.12      0.00
  111                185.94    145.75     58.82      0.00
  113                 26.21    145.77     62.29      0.00
  115                 68.25    146.61     57.46      0.00
  117                154.20    149.84     59.03      0.00
  119                230.73    157.52     67.39      0.00
  120                  0.00    155.04     67.18      0.00
  121                 54.54    161.07     70.66      0.00
  123                  0.00    165.53     66.96      0.00
  125                 59.74    160.54     64.80      0.00
  127                 23.13    159.02     44.64      0.00
  129                  0.00    159.01     46.80      0.00
  131                 56.00    158.99     66.29      0.00
  139                  7.72    154.21     53.39      0.00
  141                 12.90    150.82     63.62      0.00
  143                  8.12    142.25     63.59      0.00
  145                 36.20    151.74     65.32      0.00
  147                 11.20    152.46     58.04      0.00
  149                 35.46    152.76     59.26      0.00
  151                189.27    155.81     53.00      0.00
  153                 57.86    155.90     38.87      0.00
  157                 67.84    154.98     61.48      0.00
  159                 54.13    151.48     63.03      0.00
  161                 20.70    149.10     62.87      0.00
  163                 12.34    148.62     62.23      0.00
  164                  0.00    148.62     62.23      0.00
  166                  3.41    148.62     65.26      0.00
  167                 19.07    146.66     65.71      0.00
  169                  0.00    146.66     65.71      0.00
  171                 51.54    145.52     64.78      0.00
  173                  0.00    145.49     64.77      0.00
  177                 76.20    145.27     59.48      0.00
  179                  0.00    145.27     59.48      0.00
  181                  0.00    145.27     59.48      0.00
  183                  0.00    145.27     58.18      0.00
  184                  0.00    143.75     55.35      0.00
  185                 33.60    144.47     55.67      0.00
  187                  0.00    145.31     57.55      0.00
  189                141.38    145.65     61.38      0.00
  191                107.29    145.65     52.28      0.00
  193                 93.42    145.75     55.35      0.00
  195                  0.00    145.82     56.47      0.00
  197                 22.32    145.67     53.15      0.00
  199                156.31    139.23     61.19      0.00
  201                 58.44    138.32     59.89      0.00
  203               5089.53    138.11     58.98      0.00
  204                  0.00    145.01     53.73      0.00
  205                 85.62    139.21     51.22      0.00
  206                  0.00    138.29     59.49      0.00
  207                 90.90    138.41     56.07      0.00
  208                  0.00    138.15     52.93      0.00
  209                  1.14    137.90     60.62      0.00
[...]
  219                 61.57    139.58     58.75      0.00
  225                 33.97    139.58     57.02      0.00
  229                 95.63    139.57     55.92      0.00
  231                 24.56    139.56     58.31      0.00
  237                 23.26    139.63     54.43      0.00
  239                 66.47    139.59     54.85      0.00
  241                  0.00    139.59     54.85      0.00
  243                  6.47    139.59     54.42      0.00
  247                104.87    139.59     52.68      0.00
  249                  0.00    139.59     52.68      0.00
  251                 36.00    139.59     47.48      0.00
  253                 81.23    139.55     44.87      0.00
  255                 60.18    139.61     48.79      0.00
  257                  0.00    153.66     59.21      0.00
  259                  0.00    153.23     55.56      0.00
  261                  0.00    151.68     65.72      0.00
  263                  0.00    151.52     65.65      0.00
  265                  0.00    150.14     65.06      0.00
  267                  0.00    148.52     55.26      0.00
  269                  0.00    148.95     64.54      0.00
  271                  0.00    148.51     61.75      0.00
  273                  0.00    142.88     58.45      0.00
  275                  0.00    142.16     57.26      0.00
  River           -13147.19    220.00      0.00      0.00  Reservoir
  Lake                 0.00    167.00      0.00      0.00  Reservoir
  1                 -155.96    148.56      7.22      0.00  Tank
  2                 -210.50    139.93     10.15      0.00  Tank
  3                 1216.51    161.18     13.94      0.97  Tank
   
   
  Link Results at 23:55:00 hrs:
  ----------------------------------------------
                       Flow  Velocity  Headloss
  Link                  gpm       fps   /1000ft
  ----------------------------------------------
  20               -1216.51      0.05      0.00
  40                 155.96      0.01      0.00
  50                 210.50      0.01      0.00
  60               13147.19      9.32      8.91
  101                  0.00      0.00      0.00
  103                139.84      0.22      0.02
  105               -422.87      1.20      0.51
  107                  7.05      0.02      0.00
  109                -58.63      0.09      0.00
  111               -403.41      1.14      0.47
  112                447.12      1.27      0.57
  113               -144.65      0.41      0.07
  114                103.10      0.66      0.27
  115                -74.36      0.47      0.15
  116                -71.37      0.20      0.02
  117                631.62      1.79      1.08
  119               -702.21      1.99      1.32
  120               1152.06      3.27      3.29
  121               1026.77      2.91      2.66
  122                357.17      2.28      2.71
  123               9353.09      4.25      1.58
  125              11567.20      5.25      2.34
  129               1794.92      1.27      0.26
  131               1533.15      1.09      0.19
  133              -1216.51      1.24      0.30
  135                290.32      0.21      0.01
  137                 63.70      0.10      0.00
  145                226.63      1.45      1.17
  147                217.85      1.39      1.09
  149               -353.20      2.25      2.66
  151               -343.96      2.20      2.53
  153                150.02      0.43      0.08
  155                191.19      0.54      0.12
  159               -203.93      0.58      0.13
  161               -244.27      1.56      1.34
  163               -128.01      0.36      0.06
  169                193.83      1.24      0.87
  171                331.53      0.94      0.33
  173               7607.07      3.45      1.08
  175               7529.91      3.42      1.06
  177               7468.34      3.39      1.04
  179               7191.79      3.26      0.97
  180                  3.87      0.01      0.00
  181                  3.87      0.01      0.00
  183               6962.76      3.16      0.91
  185                -21.69      0.14      0.02
  186                311.46      1.99      2.11
  187               6335.61      2.88      0.77
  189               4900.48      2.22      0.48
  191              -1376.51      0.98      0.16
  193              -1403.75      1.00      0.16
  195                 90.35      0.26      0.03
  197                  3.68      0.01      0.00
  199                159.64      0.45      0.08
  201                155.96      0.44      0.08
  202                564.44      3.60      6.33
  203                291.21      1.86      1.86
  204                564.44      1.60      0.88
  205                311.46      0.88      0.29
  207                131.57      0.37      0.06
  209                192.20      1.23      0.86
  211                605.46      1.72      1.00
  213                119.25      0.34      0.05
  215                 -3.29      0.01      0.00
  217               -289.80      0.82      0.26
  219               -253.00      0.72      0.20
  221                253.00      1.61      1.43
  223                -48.51      0.14      0.01
  225                -23.12      0.07      0.00
  229               4900.48      3.48      1.41
  231               4564.51      3.24      1.24
  233               4427.76      3.14      1.36
  235                158.18      0.45      0.08
  237                511.55      1.45      0.73
  238                592.13      1.68      0.96
  239                183.98      0.52      0.11
  240                592.13      1.68      0.96
  241                592.13      1.68      0.96
  243                590.84      0.94      0.24
  245                358.68      0.57      0.09
  247                268.99      0.43      0.05
  249                131.63      0.21      0.01
  251                 61.57      0.13      0.01
  257                 33.97      0.10      0.00
  261                 68.92      0.44      0.13
  263                 24.56      0.07      0.00
  269                219.24      0.62      0.15
  271                 51.27      0.33      0.07
  273                144.72      0.41      0.07
  275                 33.31      0.09      0.00
  277                  6.47      0.02      0.00
  281                 26.84      0.11      0.01
  283                 44.94      0.13      0.01
  285                -35.86      0.10      0.00
  287                -42.16      0.17      0.02
  289                210.50      0.86      0.34
  291                 81.23      0.33      0.06
  293                 26.92      0.17      0.02
  295                  9.07      0.03      0.00
  297                482.45      3.08      4.74
  299                231.85      1.48      1.22
  301                231.85      1.48      1.22
  303                250.60      1.60      1.41
  305                149.17      0.42      0.07
  307                399.77      1.13      0.46
  309                211.12      1.35      1.02
  311               -214.42      0.61      0.15
  313                487.87      1.38      0.67
  315              -1494.10      1.06      0.18
  317                113.70      0.73      0.33
  319                 44.49      0.13      0.01
  321               7173.88      3.26      0.97
  323                 70.28      0.20      0.02
  325                117.59      0.75      0.35
  329              13147.19      5.97      3.01
  330                  0.00      0.00      0.00
  333                 -0.00      0.00      0.00
  10                   0.00      0.00      0.00  Pump
  335              13147.19      0.00    -93.54  Pump
   
   
  Node Results at 24:00:00 hrs:
  --------------------------------------------------------
                     Demand      Head  Pressure  Chemical
  Node                  gpm        ft       psi      mg/L
  --------------------------------------------------------
  10                   0.00    148.37      0.59      0.00
  15                 546.17    135.32     44.77      0.00
  20                   0.00    161.22     13.96     30.00
  35                1600.70    148.50     58.93      0.00
  40                   0.00    148.54      7.21      0.00
  50                   0.00    139.86     10.12      0.00
  60                   0.00    209.16     90.63      0.00
  601                  0.00    303.46    131.49      0.00
  61                   0.00    303.46    131.49      0.00
  101                248.83    148.37     46.09      0.00
  103                174.49    148.34     45.64      0.00
  105                177.33    149.68     52.51      0.00
  107                 71.58    149.67     55.32      0.00
  109                303.13    148.34     55.48      0.00
  111                185.94    148.89     60.18      0.00
  113                 26.21    148.92     63.66      0.00
  115                 68.25    149.74     58.81      0.00
  117                154.20    152.90     60.36      0.00
  119                230.73    160.46     68.66      0.00
  120                  0.00    158.02     68.47      0.00
  121                 54.54    163.95     71.91      0.00
  123                  0.00    168.35     68.18      0.00
  125                 59.74    163.42     66.04     30.00
  127                 23.13    161.89     45.88     30.00
  129                  0.00    161.88     48.05     30.00
  131                 56.00    161.86     67.54      0.00
  139                  7.72    157.11     54.64     30.00
  141                 12.90    153.73     64.88      1.14
  143                  8.12    145.16     64.85      0.00
  145                 36.20    154.65     66.58      0.00
  147                 11.20    155.37     59.31      8.20
  149                 35.46    155.68     60.52      8.32
  151                189.27    158.74     54.27      8.36
  153                 57.86    158.83     40.14     30.00
  157                 67.84    157.97     62.77      0.00
  159                 54.13    154.53     64.36      0.00
  161                 20.70    152.20     64.22      0.00
  163                 12.34    151.73     63.58      0.00
  164                  0.00    151.73     63.58      0.00
  166                  3.41    151.73     66.61      0.00
  167                 19.07    149.81     67.08      0.00
  169                  0.00    149.81     67.08      0.00
  171                 51.54    148.69     66.16      0.00
  173                  0.00    148.66     66.15      0.00
  177                 76.20    148.51     60.88      0.00
  179                  0.00    148.51     60.88      0.00
  181                  0.00    148.51     60.88      0.00
  183                  0.00    148.51     59.58      0.00
  184                  0.00    146.84     56.69      0.00
  185                 33.60    147.61     57.03      0.00
  187                  0.00    148.47     58.91      0.00
  189                141.38    148.83     62.75      0.00
  191                107.29    148.81     53.65      0.00
  193                 93.42    148.91     56.72      0.00
  195                  0.00    148.98     57.84      0.00
  197                 22.32    148.82     54.52      0.00
  199                156.31    142.03     62.41      0.00
  201                 58.44    141.09     61.09      0.00
  203               5089.53    140.87     60.17      0.00
  204                  0.00    148.17     55.10      0.00
  205                 85.62    142.00     52.43      0.00
  206                  0.00    140.78     60.57      0.00
  207                 90.90    141.08     57.23      0.00
  208                  0.00    140.44     53.92      0.00
  209                  1.14    139.86     61.47      0.00
  211                 11.36    139.66     57.48      0.00
  213                 18.26    139.59     57.45      0.00
  215                120.77    139.41     57.37      0.00
  217                 31.73    139.39     57.80      0.00
  219                 54.13    139.38     58.66      0.00
  225                 29.87    139.38     56.93      0.00
  229                 84.08    139.42     55.86      0.00
  231                 21.59    139.41     58.24      0.00
  237                 20.45    139.48     54.37      0.00
  239                 58.44    139.46     54.80      0.00
  241                  0.00    139.46     54.80      0.00
  243                  5.69    139.46     54.36      0.00
  247                 92.20    139.46     52.63      0.00
  249                  0.00    139.46     52.63      0.00
  251                 31.65    139.46     47.43      0.00
  253                 71.42    139.46     44.83      0.00
  255                 52.91    139.51     48.75      0.00
  257                  0.00    154.88     59.74      0.00
  259                  0.00    154.44     56.09      0.00
  261                  0.00    152.85     66.23      0.00
  263                  0.00    152.68     66.16      0.00
  265                  0.00    150.42     65.18      0.00
  267                  0.00    148.92     55.43      0.00
  269                  0.00    149.20     64.65      0.00
  271                  0.00    148.56     61.77      0.00
  273                  0.00    142.00     58.06      0.00
  275                  0.00    141.09     56.80      0.00
  River           -13060.50    220.00      0.00      0.00  Reservoir
  Lake                 0.00    167.00      0.00      0.00  Reservoir
  1                  -85.38    148.54      7.21      0.00  Tank
  2                 -221.56    139.86     10.12      0.00  Tank
  3                 2138.01    161.22     13.96      1.00  Tank
   
   
  Link Results at 24:00:00 hrs:
  ----------------------------------------------
                       Flow  Velocity  Headloss
  Link                  gpm       fps   /1000ft
  ----------------------------------------------
  20               -2138.01      0.09      0.00
  40                  85.38      0.00      0.00
  50                 221.56      0.01      0.00
  60               13060.50      9.26      8.81
  101                  0.00      0.00      0.00
  103                174.21      0.28      0.02
  105               -423.04      1.20      0.52
  107                 37.92      0.11      0.01
  109                 -0.29      0.00      0.00
  111               -303.42      0.86      0.28
  112                509.36      1.44      0.73
  113                -62.87      0.18      0.02
  114                128.52      0.82      0.41
  115                -33.66      0.21      0.03
  116                 39.45      0.11      0.01
  117                638.29      1.81      1.10
  119               -739.79      2.10      1.45
  120               1162.46      3.30      3.35
  121               1042.56      2.96      2.74
  122                369.83      2.36      2.89
  123               9869.58      4.48      1.74
  125              13060.50      5.93      2.93
  129               2766.54      1.96      0.57
  131               2497.71      1.77      0.47
  133              -2138.01      2.18      0.86
  135                336.56      0.24      0.01
  137                 56.00      0.09      0.00
  145                280.56      1.79      1.74
  147                272.84      1.74      1.65
  149               -554.29      3.54      6.12
  151               -546.17      3.49      5.96
  153                294.35      0.84      0.26
  155                330.55      0.94      0.33
  159               -341.75      0.97      0.35
  161               -377.21      2.41      3.00
  163               -151.24      0.43      0.08
  169                209.10      1.33      1.01
  171                415.24      1.18      0.50
  173               8061.16      3.66      1.20
  175               7993.31      3.63      1.18
  177               7939.18      3.60      1.17
  179               7668.46      3.48      1.09
  180                  3.41      0.01      0.00
  181                  3.41      0.01      0.00
  183               7449.83      3.38      1.04
  185                -19.07      0.12      0.01
  186                378.34      2.41      3.02
  187               6841.00      3.11      0.88
  189               5337.78      2.42      0.56
  191              -1451.69      1.03      0.17
  193              -1600.70      1.14      0.21
  195                 -6.41      0.02      0.00
  197                -82.61      0.23      0.02
  199                  2.77      0.01      0.00
  201                 85.38      0.24      0.03
  202                627.14      4.00      7.70
  203                282.40      1.80      1.76
  204                627.14      1.78      1.07
  205                378.34      1.07      0.42
  207                279.64      0.79      0.24
  209                175.06      1.12      0.72
  211                589.75      1.67      0.95
  213                203.28      0.58      0.13
  215                148.91      0.42      0.07
  217               -250.03      0.71      0.19
  219               -250.03      0.71      0.19
  221                250.03      1.60      1.40
  223                 60.54      0.17      0.01
  225                 82.86      0.24      0.03
  229               5337.78      3.79      1.66
  231               5068.99      3.59      1.51
  233               5089.53      3.61      1.76
  235                112.48      0.32      0.04
  237                525.62      1.49      0.77
  238                484.11      1.37      0.66
  239                 49.40      0.14      0.01
  240                484.11      1.37      0.66
  241                484.11      1.37      0.66
  243                482.97      0.77      0.16
  245                308.02      0.49      0.07
  247                236.49      0.38      0.04
  249                115.73      0.18      0.01
  251                 54.13      0.11      0.01
  257                 29.87      0.08      0.00
  261                 53.26      0.34      0.08
  263                 21.59      0.06      0.00
  269                163.60      0.46      0.09
  271                 52.40      0.33      0.08
  273                 90.75      0.26      0.03
  275                 15.64      0.04      0.00
  277                  5.69      0.02      0.00
  281                  9.95      0.04      0.00
  283                 16.67      0.05      0.00
  285                -22.55      0.06      0.00
  287                -59.69      0.24      0.03
  289                221.56      0.91      0.38
  291                 71.42      0.29      0.05
  293                 37.53      0.24      0.04
  295                 -5.88      0.02      0.00
  297                489.73      3.13      4.87
  299                235.28      1.50      1.25
  301                235.28      1.50      1.25
  303                254.44      1.62      1.45
  305                148.57      0.42      0.07
  307                403.01      1.14      0.47
  309                202.88      1.29      0.95
  311                -53.97      0.15      0.01
  313                447.16      1.27      0.57
  315              -1594.29      1.13      0.21
  317                128.38      0.82      0.41
  319                -15.90      0.05      0.00
  321               7652.71      3.47      1.09
  323                -78.98      0.22      0.02
  325                142.60      0.91      0.50
  329              13060.50      5.93      2.97
  330                  0.00      0.00      0.00
  333                 -0.00      0.00      0.00
  10                   0.00      0.00      0.00  Pump
  335              13060.50      0.00    -94.30  Pump
   
  Analysis ended Wed May 06 17:22:41 2020
