  Page 1                                    Wed May 06 17:22:46 2020

  ******************************************************************
  *                           E P A N E T                          *
  *                   Hydraulic and Water Quality                  *
  *                   Analysis for Pipe Networks                   *
  *                         Version 2.00.12                        *
  ******************************************************************
  
  Analysis begun Wed May 06 17:22:46 2020

   
  Hydraulic Status:
  -----------------------------------------------------------------------
     0:00:00: Balanced after 5 trials
     0:00:00: Reservoir River is emptying
     0:00:00: Reservoir Lake is closed
     0:00:00: Tank 1 is filling at 13.10 ft
     0:00:00: Tank 2 is emptying at 23.50 ft
     0:00:00: Tank 3 is filling at 29.00 ft
   
     0:05:00: Balanced after 2 trials
   
     0:10:00: Balanced after 2 trials
   
     0:15:00: Balanced after 2 trials
   
     0:20:00: Balanced after 2 trials
   
     0:25:00: Balanced after 2 trials
   
     0:30:00: Balanced after 2 trials
   
     0:35:00: Balanced after 2 trials
   
     0:40:00: Balanced after 2 trials
   
     0:45:00: Balanced after 2 trials
   
     0:50:00: Balanced after 2 trials
   
     0:55:00: Balanced after 2 trials
   
     1:00:00: Pump 10 changed by timer control
     1:00:00: Balanced after 7 trials
     1:00:00: Reservoir Lake is emptying
     1:00:00: Pump 10 changed from closed to open
   
     1:05:00: Balanced after 2 trials
   
     1:10:00: Balanced after 2 trials
   
     1:15:00: Balanced after 2 trials
   
     1:20:00: Balanced after 2 trials
   
     1:25:00: Balanced after 2 trials
   
     1:30:00: Balanced after 2 trials
   
     1:35:00: Balanced after 2 trials
   
     1:40:00: Balanced after 2 trials
   
     1:45:00: Balanced after 2 trials
   
     1:50:00: Balanced after 2 trials
   
     1:55:00: Balanced after 2 trials
   
     2:00:00: Balanced after 3 trials
     2:00:00: Tank 2 is filling at 21.41 ft
   
     2:05:00: Balanced after 1 trials
   
     2:10:00: Balanced after 1 trials
   
     2:15:00: Balanced after 1 trials
   
     2:20:00: Balanced after 1 trials
   
     2:25:00: Balanced after 1 trials
   
     2:30:00: Balanced after 1 trials
   
     2:35:00: Balanced after 1 trials
   
     2:40:00: Balanced after 1 trials
   
     2:45:00: Balanced after 1 trials
   
     2:50:00: Balanced after 1 trials
   
     2:55:00: Balanced after 1 trials
   
     3:00:00: Balanced after 3 trials
   
     3:05:00: Balanced after 1 trials
   
     3:10:00: Balanced after 1 trials
   
     3:15:00: Balanced after 1 trials
   
     3:20:00: Balanced after 1 trials
   
     3:25:00: Balanced after 1 trials
   
     3:30:00: Balanced after 1 trials
   
     3:35:00: Balanced after 1 trials
   
     3:40:00: Balanced after 1 trials
   
     3:45:00: Balanced after 1 trials
   
     3:50:00: Balanced after 1 trials
   
     3:55:00: Balanced after 1 trials
   
     4:00:00: Balanced after 3 trials
   
     4:05:00: Balanced after 1 trials
   
     4:10:00: Pump 335 changed by Tank 1 control
     4:10:00: Pipe 330 changed by Tank 1 control
     4:10:00: Balanced after 4 trials
     4:10:00: Pipe 330 changed from closed to open
     4:10:00: Pump 335 changed from open to closed
   
     4:15:00: Balanced after 2 trials
   
     4:20:00: Balanced after 2 trials
   
     4:25:00: Balanced after 2 trials
   
     4:30:00: Balanced after 2 trials
   
     4:35:00: Balanced after 2 trials
   
     4:40:00: Balanced after 2 trials
   
     4:45:00: Balanced after 2 trials
   
     4:50:00: Balanced after 2 trials
   
     4:55:00: Balanced after 2 trials
   
     5:00:00: Balanced after 3 trials
     5:00:00: Tank 3 is emptying at 34.48 ft
   
     5:05:00: Balanced after 2 trials
   
     5:10:00: Balanced after 2 trials
   
     5:15:00: Balanced after 2 trials
   
     5:20:00: Balanced after 2 trials
   
     5:25:00: Balanced after 2 trials
   
     5:30:00: Balanced after 2 trials
   
     5:35:00: Balanced after 2 trials
   
     5:40:00: Balanced after 2 trials
   
     5:45:00: Balanced after 2 trials
   
     5:50:00: Balanced after 2 trials
   
     5:55:00: Balanced after 2 trials
   
     6:00:00: Balanced after 3 trials
     6:00:00: Tank 3 is filling at 34.43 ft
   
     6:05:00: Balanced after 2 trials
   
     6:10:00: Balanced after 2 trials
   
     6:15:00: Balanced after 2 trials
   
     6:20:00: Balanced after 2 trials
   
     6:25:00: Balanced after 2 trials
   
     6:30:00: Balanced after 2 trials
   
     6:35:00: Balanced after 2 trials
   
     6:40:00: Balanced after 2 trials
   
     6:45:00: Balanced after 1 trials
   
     6:50:00: Balanced after 1 trials
   
     6:55:00: Balanced after 1 trials
   
     7:00:00: Balanced after 3 trials
   
     7:05:00: Balanced after 1 trials
   
     7:10:00: Balanced after 1 trials
   
     7:15:00: Balanced after 1 trials
   
     7:20:00: Balanced after 1 trials
   
     7:25:00: Balanced after 1 trials
   
     7:30:00: Balanced after 1 trials
   
     7:35:00: Balanced after 1 trials
   
     7:40:00: Balanced after 1 trials
   
     7:45:00: Balanced after 1 trials
   
     7:50:00: Balanced after 1 trials
   
     7:55:00: Balanced after 1 trials
   
     8:00:00: Balanced after 3 trials
   
     8:05:00: Balanced after 1 trials
   
     8:10:00: Balanced after 1 trials
   
     8:15:00: Balanced after 1 trials
   
     8:20:00: Balanced after 1 trials
   
     8:25:00: Balanced after 1 trials
   
     8:28:32: Balanced after 4 trials
     8:28:32: Tank 3 is closed at 35.50 ft
     8:28:32: Pipe 20 changed from open to temporarily closed
   
     8:30:00: Balanced after 1 trials
   
     8:35:00: Balanced after 1 trials
   
     8:40:00: Balanced after 1 trials
   
     8:45:00: Balanced after 1 trials
   
     8:50:00: Balanced after 1 trials
   
     8:55:00: Balanced after 1 trials
   
     9:00:00: Balanced after 6 trials
     9:00:00: Tank 3 is emptying at 35.50 ft
     9:00:00: Pipe 20 changed from temporarily closed to open
   
     9:05:00: Balanced after 2 trials
   
     9:10:00: Balanced after 2 trials
   
     9:15:00: Balanced after 2 trials
   
     9:20:00: Balanced after 2 trials
     9:20:00: Tank 1 is emptying at 23.33 ft
   
     9:25:00: Balanced after 2 trials
   
     9:30:00: Balanced after 2 trials
   
     9:35:00: Balanced after 2 trials
   
     9:40:00: Balanced after 2 trials
   
     9:45:00: Balanced after 1 trials
   
     9:50:00: Balanced after 1 trials
   
     9:55:00: Balanced after 1 trials
   
    10:00:00: Balanced after 3 trials
   
    10:05:00: Balanced after 1 trials
   
    10:10:00: Balanced after 1 trials
   
    10:15:00: Balanced after 1 trials
   
    10:20:00: Balanced after 1 trials
   
    10:25:00: Balanced after 1 trials
   
    10:30:00: Balanced after 1 trials
   
    10:35:00: Balanced after 1 trials
   
    10:40:00: Balanced after 1 trials
   
    10:45:00: Balanced after 1 trials
   
    10:50:00: Balanced after 1 trials
   
    10:55:00: Balanced after 1 trials
   
    11:00:00: Balanced after 3 trials
    11:00:00: Tank 2 is emptying at 29.06 ft
   
    11:05:00: Balanced after 1 trials
   
    11:10:00: Balanced after 1 trials
   
    11:15:00: Balanced after 1 trials
   
    11:20:00: Balanced after 1 trials
   
    11:25:00: Balanced after 1 trials
   
    11:30:00: Balanced after 1 trials
   
    11:35:00: Balanced after 1 trials
   
    11:40:00: Balanced after 1 trials
   
    11:45:00: Balanced after 1 trials
   
    11:50:00: Balanced after 1 trials
   
    11:55:00: Balanced after 1 trials
   
    12:00:00: Balanced after 2 trials
   
    12:05:00: Balanced after 1 trials
   
    12:10:00: Balanced after 1 trials
   
    12:15:00: Balanced after 1 trials
   
    12:20:00: Balanced after 1 trials
   
    12:25:00: Balanced after 1 trials
   
    12:30:00: Balanced after 1 trials
   
    12:35:00: Balanced after 1 trials
   
    12:40:00: Balanced after 1 trials
   
    12:45:00: Balanced after 1 trials
   
    12:50:00: Balanced after 1 trials
   
    12:55:00: Balanced after 1 trials
   
    13:00:00: Balanced after 3 trials
   
    13:05:00: Balanced after 1 trials
   
    13:10:00: Balanced after 1 trials
   
    13:15:00: Balanced after 1 trials
   
    13:20:00: Balanced after 1 trials
   
    13:25:00: Balanced after 1 trials
   
    13:30:00: Balanced after 1 trials
   
    13:35:00: Balanced after 1 trials
   
    13:40:00: Balanced after 1 trials
   
    13:45:00: Balanced after 1 trials
   
    13:50:00: Balanced after 1 trials
   
    13:55:00: Balanced after 1 trials
   
    14:00:00: Balanced after 4 trials
    14:00:00: Tank 1 is filling at 21.21 ft
    14:00:00: Tank 2 is filling at 27.04 ft
   
    14:05:00: Balanced after 1 trials
    14:05:00: Tank 1 is emptying at 21.21 ft
   
    14:10:00: Balanced after 1 trials
   
    14:15:00: Balanced after 1 trials
   
    14:20:00: Balanced after 1 trials
   
    14:25:00: Balanced after 1 trials
   
    14:30:00: Balanced after 1 trials
   
    14:35:00: Balanced after 1 trials
   
    14:40:00: Balanced after 1 trials
   
    14:45:00: Balanced after 1 trials
   
    14:50:00: Balanced after 1 trials
    14:50:00: Tank 2 is closed at 27.05 ft
   
    14:55:00: Balanced after 1 trials
   
    15:00:00: Pump 10 changed by timer control
    15:00:00: Balanced after 4 trials
    15:00:00: Reservoir Lake is closed
    15:00:00: Tank 2 is emptying at 27.05 ft
    15:00:00: Pump 10 changed from open to closed
   
    15:05:00: Balanced after 2 trials
   
    15:10:00: Balanced after 2 trials
   
    15:15:00: Balanced after 2 trials
   
    15:20:00: Balanced after 2 trials
   
    15:25:00: Balanced after 2 trials
   
    15:30:00: Balanced after 2 trials
   
    15:35:00: Balanced after 2 trials
   
    15:40:00: Balanced after 2 trials
   
    15:45:00: Balanced after 2 trials
   
    15:50:00: Balanced after 2 trials
   
    15:55:00: Balanced after 2 trials
   
    16:00:00: Balanced after 3 trials
    16:00:00: Tank 2 is filling at 26.91 ft
   
    16:05:00: Balanced after 2 trials
    16:05:00: Tank 2 is emptying at 26.91 ft
   
    16:10:00: Balanced after 2 trials
   
    16:15:00: Balanced after 2 trials
   
    16:20:00: Balanced after 2 trials
   
    16:25:00: Balanced after 2 trials
   
    16:30:00: Balanced after 1 trials
   
    16:35:00: Balanced after 1 trials
   
    16:40:00: Balanced after 1 trials
   
    16:45:00: Balanced after 1 trials
   
    16:50:00: Balanced after 1 trials
   
    16:55:00: Balanced after 1 trials
   
    17:00:00: Balanced after 3 trials
    17:00:00: Tank 2 is filling at 26.82 ft
   
    17:05:00: Balanced after 2 trials
   
    17:10:00: Balanced after 2 trials
   
    17:15:00: Balanced after 2 trials
   
    17:20:00: Balanced after 2 trials
   
    17:25:00: Balanced after 2 trials
   
    17:30:00: Balanced after 2 trials
   
    17:35:00: Balanced after 2 trials
   
    17:40:00: Balanced after 2 trials
   
    17:45:00: Balanced after 2 trials
   
    17:50:00: Balanced after 2 trials
   
    17:55:00: Balanced after 2 trials
   
    18:00:00: Balanced after 3 trials
    18:00:00: Tank 2 is emptying at 27.20 ft
   
    18:05:00: Balanced after 1 trials
   
    18:10:00: Balanced after 1 trials
   
    18:15:00: Balanced after 1 trials
   
    18:20:00: Balanced after 1 trials
   
    18:25:00: Balanced after 1 trials
   
    18:30:00: Balanced after 1 trials
   
    18:35:00: Balanced after 1 trials
   
    18:40:00: Balanced after 1 trials
   
    18:45:00: Balanced after 1 trials
   
    18:50:00: Balanced after 1 trials
   
    18:55:00: Balanced after 1 trials
   
    19:00:00: Balanced after 3 trials
    19:00:00: Tank 2 is filling at 26.74 ft
   
    19:05:00: Balanced after 2 trials
   
    19:10:00: Balanced after 2 trials
   
    19:15:00: Balanced after 2 trials
   
    19:20:00: Balanced after 2 trials
   
    19:25:00: Balanced after 1 trials
   
    19:30:00: Balanced after 1 trials
   
    19:35:00: Balanced after 1 trials
   
    19:40:00: Balanced after 1 trials
   
    19:45:00: Balanced after 1 trials
   
    19:50:00: Balanced after 1 trials
   
    19:55:00: Balanced after 1 trials
   
    20:00:00: Balanced after 3 trials
    20:00:00: Tank 2 is emptying at 26.89 ft
   
    20:05:00: Balanced after 1 trials
   
    20:10:00: Balanced after 1 trials
   
    20:15:00: Balanced after 1 trials
   
    20:20:00: Balanced after 1 trials
   
    20:25:00: Balanced after 1 trials
   
    20:30:00: Balanced after 1 trials
   
    20:35:00: Balanced after 1 trials
   
    20:40:00: Balanced after 1 trials
   
    20:45:00: Balanced after 1 trials
   
    20:50:00: Balanced after 1 trials
   
    20:55:00: Balanced after 1 trials
   
    21:00:00: Balanced after 3 trials
   
    21:05:00: Balanced after 1 trials
   
    21:10:00: Balanced after 1 trials
   
    21:10:26: Pump 335 changed by Tank 1 control
    21:10:26: Pipe 330 changed by Tank 1 control
    21:10:26: Balanced after 5 trials
    21:10:26: Tank 1 is filling at 17.10 ft
    21:10:26: Tank 3 is filling at 29.81 ft
    21:10:26: Pipe 330 changed from open to closed
    21:10:26: Pump 335 changed from closed to open
   
    21:15:00: Balanced after 2 trials
   
    21:20:00: Balanced after 2 trials
   
    21:25:00: Balanced after 2 trials
   
    21:30:00: Balanced after 2 trials
   
    21:35:00: Balanced after 2 trials
   
    21:40:00: Balanced after 2 trials
   
    21:45:00: Balanced after 2 trials
   
    21:50:00: Balanced after 2 trials
   
    21:55:00: Balanced after 2 trials
   
    22:00:00: Balanced after 3 trials
    22:00:00: Tank 1 is emptying at 17.50 ft
   
    22:05:00: Balanced after 2 trials
   
    22:10:00: Balanced after 2 trials
   
    22:15:00: Balanced after 2 trials
   
    22:20:00: Balanced after 2 trials
   
    22:25:00: Balanced after 2 trials
   
    22:30:00: Balanced after 2 trials
   
    22:35:00: Balanced after 2 trials
   
    22:40:00: Balanced after 2 trials
   
    22:45:00: Balanced after 2 trials
   
    22:50:00: Balanced after 2 trials
   
    22:55:00: Balanced after 2 trials
   
    23:00:00: Balanced after 3 trials
   
    23:05:00: Balanced after 2 trials
   
    23:10:00: Balanced after 2 trials
   
    23:15:00: Balanced after 2 trials
   
    23:20:00: Balanced after 2 trials
   
    23:25:00: Balanced after 2 trials
   
    23:30:00: Balanced after 2 trials
   
    23:35:00: Balanced after 2 trials
   
    23:40:00: Balanced after 2 trials
   
    23:45:00: Balanced after 2 trials
   
    23:50:00: Balanced after 2 trials
   
    23:55:00: Balanced after 2 trials
   
    24:00:00: Balanced after 4 trials
    24:00:00: Tank 1 is filling at 15.83 ft
   
   
  Node Results at 0:00:00 hrs:
  --------------------------------------------------------
                     Demand      Head  Pressure  Chemical
  Node                  gpm        ft       psi      mg/L
  --------------------------------------------------------
  10                   0.00    145.88     -0.48      0.00
  15                 566.25    130.83     42.82      0.00
  20                   0.00    158.00     12.57      0.00
  35                1894.49    145.74     57.73      0.00
  40                   0.00    145.00      5.68      0.00
  50                   0.00    140.00     10.18      0.00
  60                   0.00    209.02     90.57      0.00
  601                  0.00    302.50    131.07      0.00
  61                   0.00    302.50    131.07      0.00
  101                241.24    145.88     45.01      0.00
  103                169.16    145.85     44.57      0.00
  105                171.92    147.16     51.42      0.00
  107                 69.39    147.15     54.23      0.00
  109                293.88    145.85     54.40      0.00
  111                180.26    146.35     59.08      0.00
  113                 25.41    146.37     62.55      0.00
  115                 66.17    147.20     57.71      0.00
  117                149.49    150.31     59.24      0.00
  119                223.69    157.70     67.47      0.00
  120                  0.00    155.32     67.30      0.00
  121                 52.87    161.14     70.69      0.00
  123                  0.00    165.59     66.98      0.00
  125                 57.91    160.54     64.79      0.00
  127                 22.43    158.79     44.54      0.00
  129                  0.00    158.78     46.70      0.00
  131                 54.29    158.76     66.19      0.00
  139                  7.48    153.93     53.27      0.00
  141                 12.51    150.50     63.48      0.00
  143                  7.87    141.35     63.20      0.00
  145                 35.09    151.52     65.22      0.00
  147                 10.86    152.30     57.98      0.00
  149                 34.38    152.63     59.20      0.00
  151                183.49    155.92     53.04      0.00
  153                 56.10    156.01     38.91      0.00
  157                 65.77    155.25     61.59      0.00
  159                 52.48    151.87     63.21      0.00
  161                 20.07    149.58     63.08      0.00
  163                 11.96    149.11     62.44      0.00
  164                  0.00    149.11     62.44      0.00
  166                  3.30    149.11     65.48      0.00
  167                 18.49    147.23     65.96      0.00
  169                  0.00    147.23     65.96      0.00
  171                 49.96    146.13     65.05      0.00
  173                  0.00    146.11     65.04      0.00
  177                 73.88    145.74     59.68      0.00
  179                  0.00    145.73     59.68      0.00
  181                  0.00    145.75     59.69      0.00
  183                  0.00    145.74     58.38      0.00
  184                  0.00    144.64     55.74      0.00
  185                 32.58    145.20     55.98      0.00
  187                  0.00    145.94     57.82      0.00
  189                137.06    146.21     61.62      0.00
  191                104.01    146.25     52.54      0.00
  193                 90.56    146.34     55.61      0.00
  195                  0.00    146.41     56.72      0.00
  197                 21.64    146.27     53.41      0.00
  199                151.54    141.14     62.02      0.00
  201                 56.65    140.44     60.81      0.00
  203               4313.12    140.28     59.92      0.00
  204                  0.00    145.68     54.02      0.00
  205                 83.01    141.11     52.04      0.00
  206                  0.00    140.22     60.32      0.00
  207                 88.13    140.43     56.95      0.00
  208                  0.00    139.98     53.72      0.00
  209                  1.10    139.56     61.34      0.00
  211                 11.01    139.42     57.38      0.00
  213                 17.70    139.36     57.35      0.00
  215                117.08    139.18     57.28      0.00
  217                 30.76    139.17     57.70      0.00
  219                 52.48    139.16     58.56      0.00
  225                 28.96    139.16     56.83      0.00
  229                 81.51    139.25     55.79      0.00
  231                 20.93    139.25     58.17      0.00
  237                 19.82    139.34     54.31      0.00
  239                 56.65    139.34     54.74      0.00
  241                  0.00    139.34     54.74      0.00
  243                  5.51    139.34     54.31      0.00
  247                 89.38    139.34     52.58      0.00
  249                  0.00    139.34     52.58      0.00
  251                 30.68    139.35     47.38      0.00
  253                 69.24    139.41     44.81      0.00
  255                 51.30    139.46     48.73      0.00
  257                  0.00    152.24     58.60      0.00
  259                  0.00    151.82     54.95      0.00
  261                  0.00    150.26     65.11      0.00
  263                  0.00    150.10     65.04      0.00
  265                  0.00    147.83     64.05      0.00
  267                  0.00    146.35     54.31      0.00
  269                  0.00    146.58     63.52      0.00
  271                  0.00    145.85     60.60      0.00
  273                  0.00    141.11     57.68      0.00
  275                  0.00    140.44     56.52      0.00
  River           -13153.73    220.00      0.00      0.00  Reservoir
  Lake                 0.00    167.00      0.00      0.00  Reservoir
  1                  463.21    145.00      5.68      0.00  Tank
  2                 -280.66    140.00     10.18      0.00  Tank
  3                 2326.23    158.00     12.57      0.00  Tank
   
   
  Link Results at 0:00:00 hrs:
  ----------------------------------------------
                       Flow  Velocity  Headloss
  Link                  gpm       fps   /1000ft
  ----------------------------------------------
  20               -2326.23      0.10      0.00
  40                -463.21      0.02      0.00
  50                 280.66      0.01      0.00
  60               13153.73      9.33      8.92
  101                  0.00      0.00      0.00
  103                176.05      0.28      0.03
  105               -417.29      1.18      0.50
  107                 41.49      0.12      0.01
  109                  6.89      0.01      0.00
  111               -286.99      0.81      0.25
  112                509.85      1.45      0.73
  113                -45.46      0.13      0.01
  114                129.62      0.83      0.42
  115                -27.90      0.18      0.02
  116                 58.75      0.17      0.01
  117                630.70      1.79      1.08
  119               -733.54      2.08      1.43
  120               1147.73      3.26      3.27
  121               1029.93      2.92      2.68
  122                366.01      2.34      2.84
  123               9783.50      4.44      1.72
  125              13153.73      5.97      2.97
  129               2951.36      2.09      0.64
  131               2685.82      1.90      0.54
  133              -2326.23      2.38      1.01
  135                337.16      0.24      0.01
  137                 54.29      0.09      0.00
  145                282.87      1.81      1.76
  147                275.39      1.76      1.68
  149               -574.12      3.66      6.54
  151               -566.25      3.61      6.37
  153                311.25      0.88      0.29
  155                346.34      0.98      0.36
  159               -357.20      1.01      0.38
  161               -391.57      2.50      3.22
  163               -151.53      0.43      0.08
  169                207.63      1.33      0.99
  171                423.53      1.20      0.52
  173               7988.56      3.63      1.18
  175               7922.78      3.60      1.16
  177               7870.31      3.57      1.15
  179               7602.74      3.45      1.08
  180                  3.30      0.01      0.00
  181                  3.30      0.01      0.00
  183               7386.21      3.35      1.02
  185                -18.49      0.12      0.01
  186                347.85      2.22      2.58
  187               6764.71      3.07      0.87
  189               4566.86      2.07      0.42
  191              -2147.89      1.52      0.36
  193              -1894.49      1.34      0.28
  195                406.62      1.15      0.48
  197                332.74      0.94      0.33
  199               -130.47      0.37      0.06
  201               -463.21      1.31      0.61
  202                529.04      3.38      5.62
  203                213.77      1.36      1.05
  204                529.04      1.50      0.78
  205                347.85      0.99      0.36
  207                344.23      0.98      0.35
  209                151.28      0.97      0.55
  211                603.00      1.71      0.99
  213                196.57      0.56      0.12
  215                182.79      0.52      0.11
  217               -234.16      0.66      0.17
  219               -247.50      0.70      0.19
  221                247.50      1.58      1.38
  223                 66.42      0.19      0.02
  225                 88.06      0.25      0.03
  229               4566.86      3.24      1.24
  231               4307.45      3.05      1.11
  233               4313.12      3.06      1.30
  235                107.88      0.31      0.04
  237                445.29      1.26      0.57
  238                403.46      1.14      0.47
  239                 46.30      0.13      0.01
  240                403.46      1.14      0.47
  241                403.46      1.14      0.47
  243                402.36      0.64      0.12
  245                287.01      0.46      0.06
  247                229.27      0.37      0.04
  249                112.19      0.18      0.01
  251                 52.48      0.11      0.01
  257                 28.96      0.08      0.00
  261                 40.03      0.26      0.05
  263                 20.93      0.06      0.00
  269                104.34      0.30      0.04
  271                 62.41      0.40      0.11
  273                 22.11      0.06      0.00
  275                 -9.67      0.03      0.00
  277                  5.51      0.02      0.00
  281                -15.18      0.06      0.00
  283                -24.88      0.07      0.00
  285                 -5.38      0.02      0.00
  287                -99.18      0.41      0.09
  289                280.66      1.15      0.59
  291                 69.24      0.28      0.04
  293                 60.94      0.39      0.10
  295                -30.26      0.09      0.00
  297                483.80      3.09      4.76
  299                232.44      1.48      1.22
  301                232.44      1.48      1.22
  303                251.36      1.60      1.42
  305                146.90      0.42      0.07
  307                398.26      1.13      0.46
  309                201.27      1.28      0.94
  311                -18.48      0.05      0.00
  313                449.79      1.28      0.58
  315              -2301.11      1.63      0.41
  317                108.62      0.69      0.30
  319                 -0.74      0.00      0.00
  321               7587.48      3.44      1.07
  323                -62.33      0.18      0.01
  325                153.22      0.98      0.57
  329              13153.73      5.97      3.01
  330                  0.00      0.00      0.00
  333                 -0.00      0.00      0.00
  10                   0.00      0.00      0.00  Pump
  335              13153.73      0.00    -93.48  Pump
   
   
  Node Results at 0:05:00 hrs:
  --------------------------------------------------------
                     Demand      Head  Pressure  Chemical
  Node                  gpm        ft       psi      mg/L
  --------------------------------------------------------
  10                   0.00    145.93     -0.46      0.00
  15                 566.25    130.89     42.85      0.00
  20                   0.00    158.07     12.60      0.00
  35                1894.49    145.78     57.75      0.00
  40                   0.00    145.05      5.70      0.00
  50                   0.00    139.90     10.14      0.00
  60                   0.00    209.02     90.57      0.00
  601                  0.00    302.52    131.08      0.00
  61                   0.00    302.52    131.08      0.00
  101                241.24    145.93     45.03      0.00
  103                169.16    145.89     44.58      0.00
  105                171.92    147.20     51.43      0.00
  107                 69.39    147.19     54.25      0.00
  109                293.88    145.89     54.42      0.00
  111                180.26    146.40     59.10      0.00
  113                 25.41    146.41     62.57      0.00
  115                 66.17    147.24     57.73      0.00
  117                149.49    150.36     59.26      0.00
  119                223.69    157.76     67.49      0.00
  120                  0.00    155.37     67.32      0.00
  121                 52.87    161.19     70.71      0.00
  123                  0.00    165.65     67.01      0.00
  125                 57.91    160.60     64.82      0.00
  127                 22.43    158.86     44.57      0.00
  129                  0.00    158.85     46.73      0.00
  131                 54.29    158.83     66.22      0.00
  139                  7.48    154.00     53.29      0.00
  141                 12.51    150.56     63.50      0.00
  143                  7.87    141.41     63.22      0.00
  145                 35.09    151.58     65.25      0.00
  147                 10.86    152.36     58.00      0.00
  149                 34.38    152.69     59.23      0.00
  151                183.49    155.97     53.07      0.00
  153                 56.10    156.06     38.94      0.00
  157                 65.77    155.30     61.62      0.00
  159                 52.48    151.92     63.23      0.00
  161                 20.07    149.62     63.10      0.00
  163                 11.96    149.16     62.46      0.00
  164                  0.00    149.16     62.46      0.00
  166                  3.30    149.16     65.50      0.00
  167                 18.49    147.27     65.98      0.00
  169                  0.00    147.27     65.98      0.00
  171                 49.96    146.17     65.07      0.00
  173                  0.00    146.15     65.06      0.00
  177                 73.88    145.78     59.70      0.00
  179                  0.00    145.77     59.69      0.00
  181                  0.00    145.79     59.70      0.00
  183                  0.00    145.78     58.40      0.00
  184                  0.00    144.68     55.76      0.00
  185                 32.58    145.24     56.00      0.00
  187                  0.00    145.98     57.84      0.00
  189                137.06    146.25     61.64      0.00
  191                104.01    146.30     52.56      0.00
  193                 90.56    146.39     55.63      0.00
  195                  0.00    146.46     56.74      0.00
  197                 21.64    146.32     53.43      0.00
  199                151.54    141.16     62.03      0.00
  201                 56.65    140.46     60.82      0.00
  203               4313.12    140.30     59.93      0.00
  204                  0.00    145.72     54.04      0.00
  205                 83.01    141.13     52.05      0.00
  206                  0.00    140.22     60.33      0.00
  207                 88.13    140.45     56.96      0.00
  208                  0.00    139.97     53.72      0.00
  209                  1.10    139.53     61.33      0.00
  211                 11.01    139.39     57.36      0.00
  213                 17.70    139.33     57.34      0.00
  215                117.08    139.15     57.26      0.00
  217                 30.76    139.13     57.69      0.00
  219                 52.48    139.12     58.55      0.00
  225                 28.96    139.13     56.82      0.00
  229                 81.51    139.21     55.77      0.00
  231                 20.93    139.21     58.15      0.00
  237                 19.82    139.29     54.29      0.00
  239                 56.65    139.29     54.72      0.00
  241                  0.00    139.29     54.72      0.00
  243                  5.51    139.29     54.29      0.00
  247                 89.38    139.29     52.56      0.00
  249                  0.00    139.29     52.56      0.00
  251                 30.68    139.30     47.36      0.00
  253                 69.24    139.35     44.78      0.00
  255                 51.30    139.40     48.70      0.00
  257                  0.00    152.29     58.62      0.00
  259                  0.00    151.86     54.97      0.00
  261                  0.00    150.31     65.13      0.00
  263                  0.00    150.15     65.06      0.00
  265                  0.00    147.87     64.07      0.00
  267                  0.00    146.39     54.33      0.00
  269                  0.00    146.63     63.53      0.00
  271                  0.00    145.90     60.62      0.00
  273                  0.00    141.13     57.69      0.00
  275                  0.00    140.46     56.53      0.00
  River           -13151.84    220.00      0.00      0.00  Reservoir
  Lake                 0.00    167.00      0.00      0.00  Reservoir
  1                  458.78    145.05      5.70      0.00  Tank
  2                 -270.58    139.90     10.14      0.00  Tank
  3                 2318.68    158.07     12.60      0.00  Tank
   
   
  Link Results at 0:05:00 hrs:
  ----------------------------------------------
                       Flow  Velocity  Headloss
  Link                  gpm       fps   /1000ft
  ----------------------------------------------
  20               -2318.68      0.10      0.00
  40                -458.78      0.02      0.00
  50                 270.58      0.01      0.00
  60               13151.84      9.33      8.92
  101                  0.00      0.00      0.00
  103                176.23      0.28      0.03
  105               -417.47      1.18      0.50
  107                 41.61      0.12      0.01
  109                  7.07      0.01      0.00
  111               -286.81      0.81      0.25
  112                510.26      1.45      0.73
  113                -45.14      0.13      0.01
  114                129.74      0.83      0.42
  115                -27.78      0.18      0.02
  116                 59.19      0.17      0.01
  117                631.00      1.79      1.08
  119               -733.95      2.08      1.43
  120               1148.25      3.26      3.27
  121               1030.41      2.92      2.68
  122                366.19      2.34      2.84
  123               9788.72      4.44      1.72
  125              13151.84      5.97      2.97
  129               2944.06      2.09      0.64
  131               2678.43      1.90      0.54
  133              -2318.68      2.37      1.00
  135                337.32      0.24      0.01
  137                 54.29      0.09      0.00
  145                283.03      1.81      1.76
  147                275.54      1.76      1.68
  149               -574.12      3.66      6.54
  151               -566.25      3.61      6.37
  153                311.09      0.88      0.29
  155                346.18      0.98      0.36
  159               -357.04      1.01      0.38
  161               -391.42      2.50      3.22
  163               -151.63      0.43      0.08
  169                207.73      1.33      0.99
  171                423.28      1.20      0.52
  173               7993.51      3.63      1.18
  175               7927.73      3.60      1.16
  177               7875.26      3.57      1.15
  179               7607.61      3.45      1.08
  180                  3.30      0.01      0.00
  181                  3.30      0.01      0.00
  183               7391.08      3.35      1.02
  185                -18.49      0.12      0.01
  186                348.45      2.22      2.59
  187               6769.64      3.07      0.87
  189               4575.73      2.08      0.42
  191              -2143.95      1.52      0.36
  193              -1894.49      1.34      0.28
  195                402.75      1.14      0.47
  197                328.87      0.93      0.32
  199               -129.91      0.37      0.06
  201               -458.78      1.30      0.60
  202                530.25      3.38      5.64
  203                214.38      1.37      1.05
  204                530.25      1.50      0.78
  205                348.45      0.99      0.36
  207                344.30      0.98      0.35
  209                151.48      0.97      0.55
  211                602.95      1.71      0.99
  213                196.96      0.56      0.13
  215                183.18      0.52      0.11
  217               -234.29      0.66      0.17
  219               -247.58      0.70      0.19
  221                247.58      1.58      1.38
  223                 66.68      0.19      0.02
  225                 88.33      0.25      0.03
  229               4575.73      3.25      1.25
  231               4314.98      3.06      1.12
  233               4313.12      3.06      1.30
  235                109.22      0.31      0.04
  237                447.62      1.27      0.57
  238                413.54      1.17      0.49
  239                 54.05      0.15      0.01
  240                413.54      1.17      0.49
  241                413.54      1.17      0.49
  243                412.44      0.66      0.12
  245                288.62      0.46      0.06
  247                229.27      0.37      0.04
  249                112.19      0.18      0.01
  251                 52.48      0.11      0.01
  257                 28.96      0.08      0.00
  261                 41.64      0.27      0.05
  263                 20.93      0.06      0.00
  269                112.81      0.32      0.04
  271                 60.80      0.39      0.10
  273                 32.19      0.09      0.00
  275                 -5.77      0.02      0.00
  277                  5.51      0.02      0.00
  281                -11.28      0.05      0.00
  283                -18.70      0.05      0.00
  285                 -7.83      0.02      0.00
  287                -92.83      0.38      0.08
  289                270.58      1.11      0.55
  291                 69.24      0.28      0.04
  293                 57.22      0.37      0.09
  295                -26.54      0.08      0.00
  297                484.03      3.09      4.76
  299                232.55      1.48      1.23
  301                232.55      1.48      1.23
  303                251.48      1.61      1.42
  305                146.97      0.42      0.07
  307                398.45      1.13      0.46
  309                201.27      1.28      0.94
  311                -18.09      0.05      0.00
  313                449.66      1.28      0.58
  315              -2297.24      1.63      0.40
  317                108.85      0.69      0.30
  319                  0.37      0.00      0.00
  321               7592.35      3.45      1.07
  323                -54.80      0.16      0.01
  325                153.29      0.98      0.57
  329              13151.84      5.97      3.01
  330                  0.00      0.00      0.00
  333                 -0.00      0.00      0.00
  10                   0.00      0.00      0.00  Pump
  335              13151.84      0.00    -93.50  Pump
   
   
  Node Results at 0:10:00 hrs:
  --------------------------------------------------------
                     Demand      Head  Pressure  Chemical
  Node                  gpm        ft       psi      mg/L
  --------------------------------------------------------
  10                   0.00    145.97     -0.45      0.00
  15                 566.25    130.95     42.88      0.00
  20                   0.00    158.15     12.63      0.00
  35                1894.49    145.82     57.77      0.00
  40                   0.00    145.11      5.72      0.00
  50                   0.00    139.81     10.10      0.00
  60                   0.00    209.02     90.57      0.00
  601                  0.00    302.54    131.09      0.00
  61                   0.00    302.54    131.09      0.00
  101                241.24    145.97     45.05      0.00
  103                169.16    145.94     44.60      0.00
  105                171.92    147.25     51.45      0.00
  107                 69.39    147.24     54.27      0.00
  109                293.88    145.94     54.44      0.00
  111                180.26    146.44     59.12      0.00
  113                 25.41    146.45     62.59      0.00
  115                 66.17    147.29     57.75      0.00
  117                149.49    150.40     59.28      0.00
  119                223.69    157.81     67.51      0.00
  120                  0.00    155.42     67.34      0.00
  121                 52.87    161.25     70.74      0.00
  123                  0.00    165.70     67.03      0.00
  125                 57.91    160.66     64.85      0.00
  127                 22.43    158.93     44.60      0.00
  129                  0.00    158.92     46.76      0.00
  131                 54.29    158.90     66.25      0.00
  139                  7.48    154.06     53.32      0.00
  141                 12.51    150.62     63.53      0.00
  143                  7.87    141.47     63.25      0.00
  145                 35.09    151.64     65.27      0.00
  147                 10.86    152.42     58.03      0.00
  149                 34.38    152.75     59.25      0.00
  151                183.49    156.03     53.09      0.00
  153                 56.10    156.12     38.96      0.00
  157                 65.77    155.35     61.64      0.00
  159                 52.48    151.97     63.25      0.00
  161                 20.07    149.67     63.12      0.00
  163                 11.96    149.20     62.48      0.00
  164                  0.00    149.20     62.48      0.00
  166                  3.30    149.20     65.52      0.00
  167                 18.49    147.31     66.00      0.00
  169                  0.00    147.31     66.00      0.00
  171                 49.96    146.21     65.08      0.00
  173                  0.00    146.19     65.08      0.00
  177                 73.88    145.82     59.72      0.00
  179                  0.00    145.81     59.71      0.00
  181                  0.00    145.83     59.72      0.00
  183                  0.00    145.82     58.42      0.00
  184                  0.00    144.71     55.77      0.00
  185                 32.58    145.28     56.02      0.00
  187                  0.00    146.02     57.85      0.00
  189                137.06    146.30     61.66      0.00
  191                104.01    146.34     52.58      0.00
  193                 90.56    146.43     55.65      0.00
  195                  0.00    146.50     56.76      0.00
  197                 21.64    146.36     53.45      0.00
  199                151.54    141.19     62.04      0.00
  201                 56.65    140.48     60.83      0.00
  203               4313.12    140.32     59.94      0.00
  204                  0.00    145.76     54.06      0.00
  205                 83.01    141.15     52.06      0.00
  206                  0.00    140.23     60.33      0.00
  207                 88.13    140.46     56.96      0.00
  208                  0.00    139.97     53.71      0.00
  209                  1.10    139.51     61.32      0.00
  211                 11.01    139.36     57.35      0.00
  213                 17.70    139.29     57.32      0.00
  215                117.08    139.12     57.25      0.00
  217                 30.76    139.10     57.67      0.00
  219                 52.48    139.09     58.53      0.00
  225                 28.96    139.10     56.80      0.00
  229                 81.51    139.17     55.75      0.00
  231                 20.93    139.17     58.14      0.00
  237                 19.82    139.25     54.27      0.00
  239                 56.65    139.25     54.70      0.00
  241                  0.00    139.25     54.70      0.00
  243                  5.51    139.25     54.27      0.00
  247                 89.38    139.25     52.54      0.00
  249                  0.00    139.25     52.54      0.00
  251                 30.68    139.25     47.34      0.00
  253                 69.24    139.29     44.76      0.00
  255                 51.30    139.34     48.68      0.00
  257                  0.00    152.34     58.64      0.00
  259                  0.00    151.91     54.99      0.00
  261                  0.00    150.36     65.15      0.00
  263                  0.00    150.20     65.08      0.00
  265                  0.00    147.91     64.09      0.00
  267                  0.00    146.43     54.35      0.00
  269                  0.00    146.67     63.55      0.00
  271                  0.00    145.94     60.63      0.00
  273                  0.00    141.15     57.70      0.00
  275                  0.00    140.48     56.54      0.00
  River           -13149.95    220.00      0.00      0.00  Reservoir
  Lake                 0.00    167.00      0.00      0.00  Reservoir
  1                  454.56    145.11      5.72      0.00  Tank
  2                 -260.78    139.81     10.10      0.00  Tank
  3                 2311.20    158.15     12.63      0.00  Tank
   
   
  Link Results at 0:10:00 hrs:
  ----------------------------------------------
                       Flow  Velocity  Headloss
  Link                  gpm       fps   /1000ft
  ----------------------------------------------
  20               -2311.20      0.10      0.00
  40                -454.56      0.02      0.00
  50                 260.78      0.01      0.00
  60               13149.95      9.33      8.92
  101                  0.00      0.00      0.00
  103                176.41      0.28      0.03
  105               -417.65      1.18      0.50
  107                 41.73      0.12      0.01
  109                  7.25      0.01      0.00
  111               -286.63      0.81      0.25
  112                510.66      1.45      0.73
  113                -44.82      0.13      0.01
  114                129.86      0.83      0.42
  115                -27.66      0.18      0.02
  116                 59.63      0.17      0.01
  117                631.30      1.79      1.08
  119               -734.35      2.08      1.43
  120               1148.77      3.26      3.28
  121               1030.89      2.92      2.68
  122                366.37      2.34      2.84
  123               9793.87      4.45      1.72
  125              13149.95      5.97      2.97
  129               2936.84      2.08      0.64
  131               2671.11      1.89      0.53
  133              -2311.20      2.36      0.99
  135                337.47      0.24      0.01
  137                 54.29      0.09      0.00
  145                283.18      1.81      1.77
  147                275.70      1.76      1.68
  149               -574.12      3.66      6.54
  151               -566.25      3.61      6.37
  153                310.93      0.88      0.29
  155                346.02      0.98      0.36
  159               -356.88      1.01      0.38
  161               -391.26      2.50      3.21
  163               -151.73      0.43      0.08
  169                207.82      1.33      1.00
  171                423.02      1.20      0.52
  173               7998.39      3.63      1.18
  175               7932.62      3.60      1.16
  177               7880.14      3.58      1.15
  179               7612.42      3.46      1.08
  180                  3.30      0.01      0.00
  181                  3.30      0.01      0.00
  183               7395.89      3.36      1.02
  185                -18.49      0.12      0.01
  186                349.03      2.23      2.60
  187               6774.49      3.07      0.87
  189               4584.35      2.08      0.42
  191              -2140.17      1.52      0.35
  193              -1894.49      1.34      0.28
  195                399.05      1.13      0.46
  197                325.18      0.92      0.32
  199               -129.39      0.37      0.06
  201               -454.56      1.29      0.59
  202                531.44      3.39      5.66
  203                214.98      1.37      1.06
  204                531.44      1.51      0.79
  205                349.03      0.99      0.36
  207                344.37      0.98      0.35
  209                151.68      0.97      0.56
  211                602.91      1.71      0.99
  213                197.35      0.56      0.13
  215                183.56      0.52      0.11
  217               -234.42      0.66      0.17
  219               -247.66      0.70      0.19
  221                247.66      1.58      1.38
  223                 66.95      0.19      0.02
  225                 88.59      0.25      0.03
  229               4584.35      3.25      1.25
  231               4322.23      3.07      1.12
  233               4313.12      3.06      1.30
  235                110.59      0.31      0.04
  237                449.97      1.28      0.58
  238                423.35      1.20      0.52
  239                 61.50      0.17      0.01
  240                423.35      1.20      0.52
  241                423.35      1.20      0.52
  243                422.24      0.67      0.13
  245                290.24      0.46      0.06
  247                229.27      0.37      0.04
  249                112.19      0.18      0.01
  251                 52.48      0.11      0.01
  257                 28.96      0.08      0.00
  261                 43.27      0.28      0.05
  263                 20.93      0.06      0.00
  269                120.99      0.34      0.05
  271                 59.17      0.38      0.10
  273                 41.99      0.12      0.01
  275                 -2.07      0.01      0.00
  277                  5.51      0.02      0.00
  281                 -7.58      0.03      0.00
  283                -12.60      0.04      0.00
  285                -10.30      0.03      0.00
  287                -86.66      0.35      0.07
  289                260.78      1.07      0.51
  291                 69.24      0.28      0.04
  293                 53.59      0.34      0.08
  295                -22.90      0.06      0.00
  297                484.25      3.09      4.77
  299                232.66      1.48      1.23
  301                232.66      1.48      1.23
  303                251.59      1.61      1.42
  305                147.05      0.42      0.07
  307                398.64      1.13      0.46
  309                201.26      1.28      0.94
  311                -17.70      0.05      0.00
  313                449.54      1.28      0.58
  315              -2293.54      1.63      0.40
  317                109.05      0.70      0.30
  319                  1.54      0.00      0.00
  321               7597.15      3.45      1.07
  323                -47.54      0.13      0.01
  325                153.37      0.98      0.57
  329              13149.95      5.97      3.01
  330                  0.00      0.00      0.00
  333                 -0.00      0.00      0.00
  10                   0.00      0.00      0.00  Pump
  335              13149.95      0.00    -93.51  Pump
   
   
  Node Results at 0:15:00 hrs:
  --------------------------------------------------------
                     Demand      Head  Pressure  Chemical
  Node                  gpm        ft       psi      mg/L
  --------------------------------------------------------
  10                   0.00    146.02     -0.43      0.00
  15                 566.25    131.01     42.90      0.00
  20                   0.00    158.22     12.66      0.00
  35                1894.49    145.87     57.79      0.00
  40                   0.00    145.16      5.75      0.00
  50                   0.00    139.72     10.06      0.00
  60                   0.00    209.03     90.57      0.00
  601                  0.00    302.56    131.10      0.00
  61                   0.00    302.56    131.10      0.00
  101                241.24    146.02     45.07      0.00
  103                169.16    145.98     44.62      0.00
  105                171.92    147.29     51.47      0.00
  107                 69.39    147.28     54.29      0.00
  109                293.88    145.98     54.46      0.00
  111                180.26    146.48     59.14      0.00
  113                 25.41    146.50     62.61      0.00
  115                 66.17    147.33     57.77      0.00
  117                149.49    150.45     59.30      0.00
  119                223.69    157.86     67.54      0.00
  120                  0.00    155.47     67.37      0.00
  121                 52.87    161.31     70.76      0.00
  123                  0.00    165.76     67.06      0.00
  125                 57.91    160.72     64.87      0.00
  127                 22.43    159.00     44.63      0.00
  129                  0.00    158.98     46.79      0.00
  131                 54.29    158.97     66.28      0.00
  139                  7.48    154.12     53.35      0.00
  141                 12.51    150.68     63.56      0.00
  143                  7.87    141.53     63.27      0.00
  145                 35.09    151.70     65.30      0.00
  147                 10.86    152.48     58.05      0.00
  149                 34.38    152.81     59.28      0.00
  151                183.49    156.08     53.12      0.00
  153                 56.10    156.17     38.99      0.00
  157                 65.77    155.40     61.66      0.00
  159                 52.48    152.01     63.27      0.00
  161                 20.07    149.71     63.14      0.00
  163                 11.96    149.25     62.50      0.00
  164                  0.00    149.25     62.50      0.00
  166                  3.30    149.25     65.54      0.00
  167                 18.49    147.35     66.01      0.00
  169                  0.00    147.35     66.01      0.00
  171                 49.96    146.25     65.10      0.00
  173                  0.00    146.23     65.09      0.00
  177                 73.88    145.86     59.73      0.00
  179                  0.00    145.85     59.73      0.00
  181                  0.00    145.87     59.74      0.00
  183                  0.00    145.86     58.44      0.00
  184                  0.00    144.75     55.79      0.00
  185                 32.58    145.32     56.03      0.00
  187                  0.00    146.06     57.87      0.00
  189                137.06    146.34     61.68      0.00
  191                104.01    146.38     52.59      0.00
  193                 90.56    146.47     55.67      0.00
  195                  0.00    146.54     56.78      0.00
  197                 21.64    146.40     53.47      0.00
  199                151.54    141.21     62.05      0.00
  201                 56.65    140.50     60.84      0.00
  203               4313.12    140.34     59.94      0.00
  204                  0.00    145.80     54.08      0.00
  205                 83.01    141.18     52.07      0.00
  206                  0.00    140.23     60.33      0.00
  207                 88.13    140.48     56.97      0.00
  208                  0.00    139.96     53.71      0.00
  209                  1.10    139.48     61.31      0.00
  211                 11.01    139.33     57.34      0.00
  213                 17.70    139.26     57.31      0.00
  215                117.08    139.09     57.23      0.00
  217                 30.76    139.07     57.66      0.00
  219                 52.48    139.06     58.52      0.00
  225                 28.96    139.06     56.79      0.00
  229                 81.51    139.13     55.74      0.00
  231                 20.93    139.13     58.12      0.00
  237                 19.82    139.21     54.25      0.00
  239                 56.65    139.20     54.68      0.00
  241                  0.00    139.20     54.68      0.00
  243                  5.51    139.20     54.25      0.00
  247                 89.38    139.20     52.52      0.00
  249                  0.00    139.20     52.52      0.00
  251                 30.68    139.20     47.32      0.00
  253                 69.24    139.23     44.73      0.00
  255                 51.30    139.28     48.65      0.00
  257                  0.00    152.39     58.67      0.00
  259                  0.00    151.96     55.01      0.00
  261                  0.00    150.41     65.17      0.00
  263                  0.00    150.24     65.10      0.00
  265                  0.00    147.96     64.11      0.00
  267                  0.00    146.47     54.37      0.00
  269                  0.00    146.71     63.57      0.00
  271                  0.00    145.98     60.65      0.00
  273                  0.00    141.18     57.71      0.00
  275                  0.00    140.50     56.55      0.00
  River           -13148.06    220.00      0.00      0.00  Reservoir
  Lake                 0.00    167.00      0.00      0.00  Reservoir
  1                  450.53    145.16      5.75      0.00  Tank
  2                 -251.23    139.72     10.06      0.00  Tank
  3                 2303.80    158.22     12.66      0.00  Tank
   
   
  Link Results at 0:15:00 hrs:
  ----------------------------------------------
                       Flow  Velocity  Headloss
  Link                  gpm       fps   /1000ft
  ----------------------------------------------
  20               -2303.80      0.10      0.00
  40                -450.53      0.02      0.00
  50                 251.23      0.01      0.00
  60               13148.06      9.32      8.91
  101                  0.00      0.00      0.00
  103                176.59      0.28      0.03
  105               -417.82      1.19      0.50
  107                 41.85      0.12      0.01
  109                  7.42      0.01      0.00
  111               -286.46      0.81      0.25
  112                511.06      1.45      0.73
  113                -44.50      0.13      0.01
  114                129.98      0.83      0.42
  115                -27.54      0.18      0.02
  116                 60.06      0.17      0.01
  117                631.59      1.79      1.08
  119               -734.75      2.08      1.43
  120               1149.28      3.26      3.28
  121               1031.36      2.93      2.68
  122                366.55      2.34      2.85
  123               9798.95      4.45      1.72
  125              13148.06      5.97      2.97
  129               2929.69      2.08      0.63
  131               2663.86      1.89      0.53
  133              -2303.80      2.35      0.99
  135                337.63      0.24      0.01
  137                 54.29      0.09      0.00
  145                283.34      1.81      1.77
  147                275.85      1.76      1.68
  149               -574.12      3.66      6.54
  151               -566.25      3.61      6.37
  153                310.78      0.88      0.29
  155                345.87      0.98      0.35
  159               -356.73      1.01      0.38
  161               -391.11      2.50      3.21
  163               -151.82      0.43      0.08
  169                207.92      1.33      1.00
  171                422.77      1.20      0.51
  173               8003.21      3.63      1.18
  175               7937.44      3.60      1.17
  177               7884.96      3.58      1.15
  179               7617.16      3.46      1.08
  180                  3.30      0.01      0.00
  181                  3.30      0.01      0.00
  183               7400.64      3.36      1.02
  185                -18.49      0.12      0.01
  186                349.61      2.23      2.61
  187               6779.27      3.08      0.87
  189               4592.75      2.08      0.42
  191              -2136.56      1.52      0.35
  193              -1894.49      1.34      0.28
  195                395.51      1.12      0.46
  197                321.63      0.91      0.31
  199               -128.89      0.37      0.06
  201               -450.53      1.28      0.58
  202                532.59      3.40      5.69
  203                215.56      1.38      1.07
  204                532.59      1.51      0.79
  205                349.61      0.99      0.36
  207                344.45      0.98      0.35
  209                151.87      0.97      0.56
  211                602.88      1.71      0.99
  213                197.74      0.56      0.13
  215                183.95      0.52      0.11
  217               -234.54      0.67      0.17
  219               -247.73      0.70      0.19
  221                247.73      1.58      1.38
  223                 67.21      0.19      0.02
  225                 88.85      0.25      0.03
  229               4592.75      3.26      1.25
  231               4329.23      3.07      1.12
  233               4313.12      3.06      1.30
  235                111.98      0.32      0.04
  237                452.33      1.28      0.58
  238                432.90      1.23      0.54
  239                 68.69      0.19      0.02
  240                432.90      1.23      0.54
  241                432.90      1.23      0.54
  243                431.79      0.69      0.13
  245                291.89      0.47      0.06
  247                229.27      0.37      0.04
  249                112.19      0.18      0.01
  251                 52.48      0.11      0.01
  257                 28.96      0.08      0.00
  261                 44.91      0.29      0.06
  263                 20.93      0.06      0.00
  269                128.89      0.37      0.06
  271                 57.53      0.37      0.09
  273                 51.54      0.15      0.01
  275                  1.59      0.00      0.00
  277                  5.51      0.02      0.00
  281                 -3.92      0.02      0.00
  283                 -6.71      0.02      0.00
  285                -12.65      0.04      0.00
  287                -80.65      0.33      0.06
  289                251.23      1.03      0.48
  291                 69.24      0.28      0.04
  293                 50.04      0.32      0.07
  295                -19.36      0.05      0.00
  297                484.47      3.09      4.77
  299                232.76      1.49      1.23
  301                232.76      1.49      1.23
  303                251.71      1.61      1.42
  305                147.12      0.42      0.07
  307                398.83      1.13      0.46
  309                201.26      1.28      0.94
  311                -17.31      0.05      0.00
  313                449.43      1.27      0.58
  315              -2290.00      1.62      0.40
  317                109.23      0.70      0.30
  319                  2.75      0.01      0.00
  321               7601.89      3.45      1.08
  323                -40.54      0.12      0.01
  325                153.44      0.98      0.57
  329              13148.06      5.97      3.01
  330                  0.00      0.00      0.00
  333                 -0.00      0.00      0.00
  10                   0.00      0.00      0.00  Pump
  335              13148.06      0.00    -93.53  Pump
   
   
  Node Results at 0:20:00 hrs:
  --------------------------------------------------------
                     Demand      Head  Pressure  Chemical
  Node                  gpm        ft       psi      mg/L
  --------------------------------------------------------
  10                   0.00    146.06     -0.41      0.00
  15                 566.25    131.07     42.93      0.00
  20                   0.00    158.29     12.69      0.00
  35                1894.49    145.91     57.81      0.00
  40                   0.00    145.22      5.77      0.00
  50                   0.00    139.64     10.03      0.00
  60                   0.00    209.03     90.57      0.00
  601                  0.00    302.57    131.11      0.00
  61                   0.00    302.57    131.11      0.00
  101                241.24    146.06     45.09      0.00
  103                169.16    146.03     44.64      0.00
  105                171.92    147.34     51.49      0.00
  107                 69.39    147.33     54.31      0.00
  109                293.88    146.03     54.48      0.00
  111                180.26    146.53     59.16      0.00
  113                 25.41    146.54     62.63      0.00
  115                 66.17    147.37     57.79      0.00
  117                149.49    150.50     59.32      0.00
  119                223.69    157.92     67.56      0.00
  120                  0.00    155.52     67.39      0.00
  121                 52.87    161.36     70.79      0.00
  123                  0.00    165.81     67.08      0.00
  125                 57.91    160.78     64.90      0.00
  127                 22.43    159.06     44.66      0.00
  129                  0.00    159.05     46.82      0.00
  131                 54.29    159.03     66.31      0.00
  139                  7.48    154.19     53.38      0.00
  141                 12.51    150.74     63.58      0.00
  143                  7.87    141.59     63.30      0.00
  145                 35.09    151.76     65.32      0.00
  147                 10.86    152.54     58.08      0.00
  149                 34.38    152.87     59.30      0.00
  151                183.49    156.14     53.14      0.00
  153                 56.10    156.23     39.01      0.00
  157                 65.77    155.45     61.68      0.00
  159                 52.48    152.06     63.29      0.00
  161                 20.07    149.76     63.16      0.00
  163                 11.96    149.29     62.52      0.00
  164                  0.00    149.29     62.52      0.00
  166                  3.30    149.29     65.55      0.00
  167                 18.49    147.39     66.03      0.00
  169                  0.00    147.39     66.03      0.00
  171                 49.96    146.29     65.12      0.00
  173                  0.00    146.27     65.11      0.00
  177                 73.88    145.90     59.75      0.00
  179                  0.00    145.89     59.75      0.00
  181                  0.00    145.92     59.76      0.00
  183                  0.00    145.91     58.45      0.00
  184                  0.00    144.79     55.80      0.00
  185                 32.58    145.36     56.05      0.00
  187                  0.00    146.10     57.89      0.00
  189                137.06    146.38     61.69      0.00
  191                104.01    146.43     52.61      0.00
  193                 90.56    146.52     55.69      0.00
  195                  0.00    146.58     56.80      0.00
  197                 21.64    146.44     53.49      0.00
  199                151.54    141.23     62.06      0.00
  201                 56.65    140.52     60.84      0.00
  203               4313.12    140.37     59.95      0.00
  204                  0.00    145.84     54.09      0.00
  205                 83.01    141.20     52.08      0.00
  206                  0.00    140.24     60.33      0.00
  207                 88.13    140.49     56.98      0.00
  208                  0.00    139.96     53.71      0.00
  209                  1.10    139.46     61.30      0.00
  211                 11.01    139.30     57.32      0.00
  213                 17.70    139.23     57.30      0.00
  215                117.08    139.06     57.22      0.00
  217                 30.76    139.04     57.65      0.00
  219                 52.48    139.03     58.51      0.00
  225                 28.96    139.03     56.78      0.00
  229                 81.51    139.09     55.72      0.00
  231                 20.93    139.09     58.10      0.00
  237                 19.82    139.16     54.23      0.00
  239                 56.65    139.16     54.66      0.00
  241                  0.00    139.16     54.66      0.00
  243                  5.51    139.16     54.23      0.00
  247                 89.38    139.16     52.50      0.00
  249                  0.00    139.16     52.50      0.00
  251                 30.68    139.16     47.30      0.00
  253                 69.24    139.18     44.71      0.00
  255                 51.30    139.23     48.63      0.00
  257                  0.00    152.44     58.69      0.00
  259                  0.00    152.01     55.03      0.00
  261                  0.00    150.45     65.19      0.00
  263                  0.00    150.29     65.12      0.00
  265                  0.00    148.00     64.13      0.00
  267                  0.00    146.52     54.39      0.00
  269                  0.00    146.75     63.59      0.00
  271                  0.00    146.02     60.67      0.00
  273                  0.00    141.20     57.72      0.00
  275                  0.00    140.52     56.56      0.00
  River           -13146.17    220.00      0.00      0.00  Reservoir
  Lake                 0.00    167.00      0.00      0.00  Reservoir
  1                  446.66    145.22      5.77      0.00  Tank
  2                 -241.92    139.64     10.03      0.00  Tank
  3                 2296.47    158.29     12.69      0.00  Tank
   
   
  Link Results at 0:20:00 hrs:
  ----------------------------------------------
                       Flow  Velocity  Headloss
  Link                  gpm       fps   /1000ft
  ----------------------------------------------
  20               -2296.47      0.10      0.00
  40                -446.66      0.02      0.00
  50                 241.92      0.01      0.00
  60               13146.17      9.32      8.91
  101                  0.00      0.00      0.00
  103                176.76      0.28      0.03
  105               -418.00      1.19      0.50
  107                 41.97      0.12      0.01
  109                  7.60      0.01      0.00
  111               -286.28      0.81      0.25
  112                511.46      1.45      0.73
  113                -44.19      0.13      0.01
  114                130.09      0.83      0.42
  115                -27.43      0.18      0.02
  116                 60.49      0.17      0.01
  117                631.88      1.79      1.08
  119               -735.15      2.09      1.43
  120               1149.79      3.26      3.28
  121               1031.83      2.93      2.69
  122                366.73      2.34      2.85
  123               9803.97      4.45      1.72
  125              13146.17      5.97      2.97
  129               2922.61      2.07      0.63
  131               2656.68      1.88      0.53
  133              -2296.47      2.35      0.98
  135                337.78      0.24      0.01
  137                 54.29      0.09      0.00
  145                283.49      1.81      1.77
  147                276.01      1.76      1.68
  149               -574.12      3.66      6.54
  151               -566.25      3.61      6.37
  153                310.63      0.88      0.29
  155                345.72      0.98      0.35
  159               -356.57      1.01      0.38
  161               -390.95      2.50      3.21
  163               -151.92      0.43      0.08
  169                208.02      1.33      1.00
  171                422.52      1.20      0.51
  173               8007.97      3.63      1.18
  175               7942.19      3.60      1.17
  177               7889.72      3.58      1.15
  179               7621.84      3.46      1.08
  180                  3.30      0.01      0.00
  181                  3.30      0.01      0.00
  183               7405.32      3.36      1.02
  185                -18.49      0.12      0.01
  186                350.17      2.24      2.62
  187               6783.98      3.08      0.87
  189               4600.94      2.09      0.42
  191              -2133.08      1.51      0.35
  193              -1894.49      1.34      0.28
  195                392.11      1.11      0.45
  197                318.24      0.90      0.30
  199               -128.42      0.36      0.06
  201               -446.66      1.27      0.57
  202                533.71      3.41      5.71
  203                216.12      1.38      1.07
  204                533.71      1.51      0.79
  205                350.17      0.99      0.36
  207                344.54      0.98      0.35
  209                152.06      0.97      0.56
  211                602.85      1.71      0.99
  213                198.11      0.56      0.13
  215                184.33      0.52      0.11
  217               -234.66      0.67      0.17
  219               -247.81      0.70      0.19
  221                247.81      1.58      1.38
  223                 67.46      0.19      0.02
  225                 89.10      0.25      0.03
  229               4600.94      3.26      1.26
  231               4336.00      3.08      1.13
  233               4313.12      3.06      1.30
  235                113.39      0.32      0.04
  237                454.71      1.29      0.59
  238                442.20      1.25      0.56
  239                 75.62      0.21      0.02
  240                442.20      1.25      0.56
  241                442.20      1.25      0.56
  243                441.10      0.70      0.14
  245                293.54      0.47      0.06
  247                229.27      0.37      0.04
  249                112.19      0.18      0.01
  251                 52.48      0.11      0.01
  257                 28.96      0.08      0.00
  261                 46.56      0.30      0.06
  263                 20.93      0.06      0.00
  269                136.55      0.39      0.06
  271                 55.87      0.36      0.09
  273                 60.85      0.17      0.01
  275                  5.42      0.02      0.00
  277                  5.51      0.02      0.00
  281                 -0.10      0.00      0.00
  283                 -1.22      0.00      0.00
  285                -14.67      0.04      0.00
  287                -74.81      0.31      0.05
  289                241.92      0.99      0.44
  291                 69.24      0.28      0.04
  293                 46.57      0.30      0.06
  295                -15.89      0.05      0.00
  297                484.69      3.09      4.78
  299                232.87      1.49      1.23
  301                232.87      1.49      1.23
  303                251.82      1.61      1.42
  305                147.19      0.42      0.07
  307                399.01      1.13      0.46
  309                201.26      1.28      0.94
  311                -16.92      0.05      0.00
  313                449.33      1.27      0.58
  315              -2286.60      1.62      0.40
  317                109.39      0.70      0.30
  319                  4.00      0.01      0.00
  321               7606.57      3.45      1.08
  323                -33.77      0.10      0.00
  325                153.52      0.98      0.57
  329              13146.17      5.97      3.01
  330                  0.00      0.00      0.00
  333                 -0.00      0.00      0.00
  10                   0.00      0.00      0.00  Pump
  335              13146.17      0.00    -93.55  Pump
   
   
  Node Results at 0:25:00 hrs:
  --------------------------------------------------------
                     Demand      Head  Pressure  Chemical
  Node                  gpm        ft       psi      mg/L
  --------------------------------------------------------
  10                   0.00    146.10     -0.39      0.00
  15                 566.25    131.13     42.95      0.00
  20                   0.00    158.37     12.72      0.00
  35                1894.49    145.95     57.82      0.00
  40                   0.00    145.27      5.79      0.00
  50                   0.00    139.56      9.99      0.00
  60                   0.00    209.03     90.57      0.00
  601                  0.00    302.59    131.11      0.00
  61                   0.00    302.59    131.11      0.00
  101                241.24    146.10     45.11      0.00
  103                169.16    146.07     44.66      0.00
  105                171.92    147.38     51.51      0.00
  107                 69.39    147.37     54.32      0.00
  109                293.88    146.07     54.50      0.00
  111                180.26    146.57     59.18      0.00
  113                 25.41    146.58     62.65      0.00
  115                 66.17    147.42     57.81      0.00
  117                149.49    150.55     59.34      0.00
  119                223.69    157.97     67.58      0.00
  120                  0.00    155.57     67.41      0.00
  121                 52.87    161.42     70.81      0.00
  123                  0.00    165.87     67.11      0.00
  125                 57.91    160.84     64.92      0.00
  127                 22.43    159.13     44.69      0.00
  129                  0.00    159.12     46.85      0.00
  131                 54.29    159.10     66.34      0.00
  139                  7.48    154.25     53.40      0.00
  141                 12.51    150.80     63.61      0.00
  143                  7.87    141.65     63.33      0.00
  145                 35.09    151.82     65.35      0.00
  147                 10.86    152.60     58.10      0.00
  149                 34.38    152.93     59.33      0.00
  151                183.49    156.20     53.16      0.00
  153                 56.10    156.29     39.03      0.00
  157                 65.77    155.51     61.70      0.00
  159                 52.48    152.11     63.31      0.00
  161                 20.07    149.80     63.18      0.00
  163                 11.96    149.34     62.54      0.00
  164                  0.00    149.34     62.54      0.00
  166                  3.30    149.34     65.57      0.00
  167                 18.49    147.44     66.05      0.00
  169                  0.00    147.44     66.05      0.00
  171                 49.96    146.33     65.14      0.00
  173                  0.00    146.31     65.13      0.00
  177                 73.88    145.94     59.77      0.00
  179                  0.00    145.94     59.77      0.00
  181                  0.00    145.96     59.78      0.00
  183                  0.00    145.95     58.47      0.00
  184                  0.00    144.83     55.82      0.00
  185                 32.58    145.40     56.07      0.00
  187                  0.00    146.14     57.91      0.00
  189                137.06    146.42     61.71      0.00
  191                104.01    146.47     52.63      0.00
  193                 90.56    146.56     55.70      0.00
  195                  0.00    146.63     56.82      0.00
  197                 21.64    146.49     53.51      0.00
  199                151.54    141.26     62.07      0.00
  201                 56.65    140.54     60.85      0.00
  203               4313.12    140.39     59.96      0.00
  204                  0.00    145.88     54.11      0.00
  205                 83.01    141.22     52.09      0.00
[...]
  219                 69.42    137.32     57.77      0.00
  225                 38.30    137.33     56.04      0.00
  229                107.82    137.56     55.05      0.00
  231                 27.69    137.55     57.43      0.00
  237                 26.22    137.74     53.62      0.00
  239                 74.94    137.75     54.05      0.00
  241                  0.00    137.75     54.05      0.00
  243                  7.29    137.75     53.62      0.00
  247                118.24    137.76     51.89      0.00
  249                  0.00    137.76     51.89      0.00
  251                 40.59    137.79     46.71      0.00
  253                 91.59    138.09     44.23      0.00
  255                 67.86    138.17     48.17      0.00
  257                  0.00    151.28     58.18      0.00
  259                  0.00    150.80     54.51      0.00
  261                  0.00    149.10     64.61      0.00
  263                  0.00    148.92     64.53      0.00
  265                  0.00    147.90     64.08      0.00
  267                  0.00    146.12     54.22      0.00
  269                  0.00    146.64     63.54      0.00
  271                  0.00    146.24     60.77      0.00
  273                  0.00    139.79     57.10      0.00
  275                  0.00    138.94     55.87      0.00
  River           -13208.42    220.00      0.00      0.00  Reservoir
  Lake                 0.00    167.00      0.00      0.00  Reservoir
  1                 -706.41    147.81      6.89      0.00  Tank
  2                 -469.13    139.57     10.00      0.00  Tank
  3                  476.35    160.34     13.58      0.00  Tank
   
   
  Link Results at 23:55:00 hrs:
  ----------------------------------------------
                       Flow  Velocity  Headloss
  Link                  gpm       fps   /1000ft
  ----------------------------------------------
  20                -476.35      0.02      0.00
  40                 706.41      0.03      0.00
  50                 469.13      0.02      0.00
  60               13208.42      9.37      8.99
  101                  0.00      0.00      0.00
  103                131.30      0.21      0.01
  105               -450.42      1.28      0.58
  107                 -7.87      0.02      0.00
  109                -92.47      0.15      0.01
  111               -481.23      1.37      0.65
  112                442.50      1.26      0.56
  113               -191.30      0.54      0.12
  114                 93.16      0.59      0.23
  115                -99.67      0.64      0.26
  116               -131.76      0.37      0.06
  117                669.96      1.90      1.21
  119               -722.86      2.05      1.39
  120               1217.87      3.45      3.65
  121               1081.98      3.07      2.93
  122                372.70      2.38      2.94
  123               9661.91      4.39      1.68
  125              11195.48      5.08      2.20
  129               1090.93      0.77      0.10
  131                811.58      0.58      0.06
  133               -476.35      0.49      0.05
  135                305.55      0.22      0.01
  137                 71.82      0.11      0.00
  145                233.73      1.49      1.24
  147                223.84      1.43      1.14
  149               -319.63      2.04      2.21
  151               -309.21      1.97      2.08
  153                112.33      0.32      0.04
  155                158.75      0.45      0.08
  159               -173.12      0.49      0.10
  161               -218.59      1.40      1.09
  163               -128.54      0.36      0.06
  169                202.75      1.29      0.95
  171                332.78      0.94      0.33
  173               7815.36      3.55      1.13
  175               7728.35      3.51      1.11
  177               7658.94      3.48      1.09
  179               7363.59      3.34      1.01
  180                  4.37      0.01      0.00
  181                  4.37      0.01      0.00
  183               7121.62      3.23      0.95
  185                -24.46      0.16      0.02
  186                311.23      1.99      2.10
  187               6469.02      2.94      0.80
  189               5265.48      2.39      0.55
  191              -1137.45      0.81      0.11
  193              -1536.72      1.09      0.19
  195               -287.87      0.82      0.25
  197               -385.59      1.09      0.43
  199                320.82      0.91      0.31
  201                706.41      2.00      1.33
  202                600.07      3.83      7.09
  203                331.93      2.12      2.37
  204                600.07      1.70      0.98
  205                311.23      0.88      0.29
  207                 11.11      0.03      0.00
  209                232.45      1.48      1.22
  211                628.14      1.78      1.07
  213                 78.78      0.22      0.02
  215                -91.87      0.26      0.03
  217               -330.89      0.94      0.33
  219               -268.80      0.76      0.22
  221                268.80      1.72      1.60
  223               -114.51      0.32      0.05
  225                -85.88      0.24      0.03
  229               5265.48      3.73      1.62
  231               4926.72      3.49      1.43
  233               4927.92      3.49      1.66
  235                138.30      0.39      0.06
  237                505.09      1.43      0.72
  238                435.85      1.24      0.54
  239                 47.33      0.13      0.01
  240                435.85      1.24      0.54
  241                435.85      1.24      0.54
  243                434.39      0.69      0.13
  245                367.67      0.59      0.10
  247                303.29      0.48      0.07
  249                148.41      0.24      0.02
  251                 69.42      0.14      0.01
  257                 38.30      0.11      0.01
  261                 40.96      0.26      0.05
  263                 27.69      0.08      0.00
  269                 52.15      0.15      0.01
  271                 94.55      0.60      0.23
  273                -68.62      0.19      0.02
  275                -49.28      0.14      0.01
  277                  7.29      0.02      0.00
  281                -56.57      0.23      0.03
  283                -94.29      0.27      0.03
  285                 18.21      0.05      0.00
  287               -193.02      0.79      0.29
  289                469.13      1.92      1.52
  291                 91.59      0.37      0.07
  293                116.66      0.74      0.34
  295                -76.07      0.22      0.02
  297                508.59      3.25      5.22
  299                244.51      1.56      1.35
  301                244.51      1.56      1.35
  303                264.08      1.69      1.55
  305                161.37      0.46      0.09
  307                425.45      1.21      0.52
  309                221.78      1.42      1.12
  311               -313.65      0.89      0.30
  313                516.74      1.47      0.75
  315              -1248.85      0.89      0.13
  317                123.48      0.79      0.38
  319                 14.82      0.04      0.00
  321               7343.40      3.33      1.01
  323                -76.14      0.22      0.02
  325                111.41      0.71      0.31
  329              13208.42      6.00      3.03
  330                  0.00      0.00      0.00
  333                 -0.00      0.00      0.00
  10                   0.00      0.00      0.00  Pump
  335              13208.42      0.00    -93.00  Pump
   
   
  Node Results at 24:00:00 hrs:
  --------------------------------------------------------
                     Demand      Head  Pressure  Chemical
  Node                  gpm        ft       psi      mg/L
  --------------------------------------------------------
  10                   0.00    148.09      0.47      0.00
  15                 566.25    133.07     43.79      0.00
  20                   0.00    160.35     13.58      0.00
  35                1894.49    147.98     58.70      0.00
  40                   0.00    147.73      6.86      0.00
  50                   0.00    139.41      9.93      0.00
  60                   0.00    209.13     90.62      0.00
  601                  0.00    303.25    131.40      0.00
  61                   0.00    303.25    131.40      0.00
  101                241.24    148.09     45.97      0.00
  103                169.16    148.05     45.52      0.00
  105                171.92    149.36     52.37      0.00
  107                 69.39    149.35     55.18      0.00
  109                293.88    148.05     55.36      0.00
  111                180.26    148.56     60.04      0.00
  113                 25.41    148.57     63.51      0.00
  115                 66.17    149.40     58.67      0.00
  117                149.49    152.51     60.19      0.00
  119                223.69    159.90     68.42      0.00
  120                  0.00    157.51     68.25      0.00
  121                 52.87    163.33     71.64      0.00
  123                  0.00    167.74     67.91      0.00
  125                 57.91    162.76     65.76      0.00
  127                 22.43    161.09     45.54      0.00
  129                  0.00    161.08     47.70      0.00
  131                 54.29    161.07     67.19      0.00
  139                  7.48    156.20     54.25      0.00
  141                 12.51    152.74     64.45      0.00
  143                  7.87    143.59     64.17      0.00
  145                 35.09    153.75     66.19      0.00
  147                 10.86    154.53     58.94      0.00
  149                 34.38    154.86     60.17      0.00
  151                183.49    158.12     54.00      0.00
  153                 56.10    158.21     39.87      0.00
  157                 65.77    157.44     62.54      0.00
  159                 52.48    154.06     64.16      0.00
  161                 20.07    151.77     64.03      0.00
  163                 11.96    151.31     63.39      0.00
  164                  0.00    151.31     63.39      0.00
  166                  3.30    151.31     66.43      0.00
  167                 18.49    149.42     66.91      0.00
  169                  0.00    149.42     66.91      0.00
  171                 49.96    148.31     66.00      0.00
  173                  0.00    148.29     65.99      0.00
  177                 73.88    147.98     60.65      0.00
  179                  0.00    147.98     60.65      0.00
  181                  0.00    147.99     60.66      0.00
  183                  0.00    147.99     59.36      0.00
  184                  0.00    146.76     56.66      0.00
  185                 32.58    147.37     56.92      0.00
  187                  0.00    148.13     58.77      0.00
  189                137.06    148.43     62.58      0.00
  191                104.01    148.46     53.49      0.00
  193                 90.56    148.55     56.57      0.00
  195                  0.00    148.62     57.68      0.00
  197                 21.64    148.48     54.37      0.00
  199                151.54    142.97     62.81      0.00
  201                 56.65    142.22     61.58      0.00
  203               4313.12    142.07     60.69      0.00
  204                  0.00    147.86     54.97      0.00
  205                 83.01    142.91     52.82      0.00
  206                  0.00    141.60     60.92      0.00
  207                 88.13    142.05     57.65      0.00
  208                  0.00    141.10     54.20      0.00
  209                  1.10    140.21     61.62      0.00
  211                 11.01    139.92     57.59      0.00
  213                 17.70    139.84     57.56      0.00
  215                117.08    139.66     57.48      0.00
  217                 30.76    139.65     57.91      0.00
  219                 52.48    139.63     58.77      0.00
  225                 28.96    139.64     57.04      0.00
  229                 81.51    139.46     55.88      0.00
  231                 20.93    139.45     58.26      0.00
  237                 19.82    139.47     54.37      0.00
  239                 56.65    139.39     54.76      0.00
  241                  0.00    139.39     54.76      0.00
  243                  5.51    139.39     54.33      0.00
  247                 89.38    139.37     52.59      0.00
  249                  0.00    139.37     52.59      0.00
  251                 30.68    139.36     47.39      0.00
  253                 69.24    139.31     44.76      0.00
  255                 51.30    139.36     48.68      0.00
  257                  0.00    154.44     59.55      0.00
  259                  0.00    154.02     55.90      0.00
  261                  0.00    152.46     66.06      0.00
  263                  0.00    152.30     65.99      0.00
  265                  0.00    150.02     65.00      0.00
  267                  0.00    148.55     55.27      0.00
  269                  0.00    148.79     64.47      0.00
  271                  0.00    148.08     61.56      0.00
  273                  0.00    142.91     58.46      0.00
  275                  0.00    142.22     57.29      0.00
  River           -13081.13    220.00      0.00      0.00  Reservoir
  Lake                 0.00    167.00      0.00      0.00  Reservoir
  1                  262.67    147.73      6.86      0.00  Tank
  2                  -79.76    139.41      9.93      0.00  Tank
  3                 2253.26    160.35     13.58      0.00  Tank
   
   
  Link Results at 24:00:00 hrs:
  ----------------------------------------------
                       Flow  Velocity  Headloss
  Link                  gpm       fps   /1000ft
  ----------------------------------------------
  20               -2253.26      0.09      0.00
  40                -262.67      0.01      0.00
  50                  79.76      0.00      0.00
  60               13081.13      9.28      8.83
  101                  0.00      0.00      0.00
  103                175.88      0.28      0.02
  105               -417.12      1.18      0.50
  107                 41.38      0.12      0.01
  109                  6.72      0.01      0.00
  111               -287.16      0.81      0.25
  112                509.48      1.45      0.73
  113                -46.26      0.13      0.01
  114                129.48      0.83      0.41
  115                -28.02      0.18      0.02
  116                 57.81      0.16      0.01
  117                630.42      1.79      1.08
  119               -733.15      2.08      1.43
  120               1147.15      3.25      3.27
  121               1029.47      2.92      2.67
  122                365.91      2.34      2.84
  123               9782.43      4.44      1.72
  125              13081.13      5.94      2.94
  129               2879.92      2.04      0.61
  131               2614.05      1.85      0.51
  133              -2253.26      2.30      0.95
  135                338.36      0.24      0.01
  137                 54.29      0.09      0.00
  145                284.07      1.81      1.78
  147                276.59      1.77      1.69
  149               -574.12      3.66      6.54
  151               -566.25      3.61      6.37
  153                310.04      0.88      0.29
  155                345.13      0.98      0.35
  159               -355.99      1.01      0.37
  161               -390.37      2.49      3.20
  163               -151.86      0.43      0.08
  169                207.96      1.33      1.00
  171                422.00      1.20      0.51
  173               7989.60      3.63      1.18
  175               7923.83      3.60      1.16
  177               7871.35      3.57      1.15
  179               7604.35      3.45      1.08
  180                  3.30      0.01      0.00
  181                  3.30      0.01      0.00
  183               7388.92      3.35      1.02
  185                -18.49      0.12      0.01
  186                355.36      2.27      2.69
  187               6774.77      3.07      0.87
  189               4742.77      2.15      0.45
  191              -1982.04      1.41      0.31
  193              -1894.49      1.34      0.28
  195                238.48      0.68      0.18
  197                164.60      0.47      0.09
  199                -98.07      0.28      0.03
  201               -262.67      0.75      0.21
  202                554.04      3.54      6.12
  203                231.25      1.48      1.21
  204                554.04      1.57      0.85
  205                355.36      1.01      0.37
  207                329.32      0.93      0.32
  209                156.20      1.00      0.59
  211                595.66      1.69      0.97
  213                199.16      0.56      0.13
  215                177.85      0.50      0.10
  217               -236.50      0.67      0.18
  219               -246.93      0.70      0.19
  221                246.93      1.58      1.37
  223                 66.67      0.19      0.02
  225                 88.32      0.25      0.03
  229               4742.77      3.36      1.33
  231               4445.78      3.15      1.18
  233               4313.12      3.06      1.30
  235                145.45      0.41      0.07
  237                505.14      1.43      0.72
  238                604.36      1.71      1.00
  239                187.35      0.53      0.11
  240                604.36      1.71      1.00
  241                604.36      1.71      1.00
  243                603.26      0.96      0.24
  245                327.92      0.52      0.08
  247                229.27      0.37      0.04
  249                112.19      0.18      0.01
  251                 52.48      0.11      0.01
  257                 28.96      0.08      0.00
  261                 80.94      0.52      0.17
  263                 20.93      0.06      0.00
  269                264.33      0.75      0.22
  271                 21.50      0.14      0.01
  273                223.01      0.63      0.16
  275                 65.73      0.19      0.02
  277                  5.51      0.02      0.00
  281                 60.22      0.25      0.03
  283                100.62      0.29      0.04
  285                -59.95      0.17      0.01
  287                 30.79      0.13      0.01
  289                 79.76      0.33      0.06
  291                 69.24      0.28      0.04
  293                 -9.99      0.06      0.00
  295                 40.67      0.12      0.01
  297                483.58      3.09      4.76
  299                232.34      1.48      1.22
  301                232.34      1.48      1.22
  303                251.25      1.60      1.41
  305                146.83      0.42      0.07
  307                398.08      1.13      0.46
  309                200.16      1.28      0.93
  311                -22.31      0.06      0.00
  313                444.73      1.26      0.57
  315              -2132.97      1.51      0.35
  317                111.34      0.71      0.31
  319                 34.11      0.10      0.00
  321               7589.08      3.44      1.07
  323                 76.01      0.22      0.02
  325                150.93      0.96      0.55
  329              13081.13      5.94      2.98
  330                  0.00      0.00      0.00
  333                 -0.00      0.00      0.00
  10                   0.00      0.00      0.00  Pump
  335              13081.13      0.00    -94.12  Pump
   
  Analysis ended Wed May 06 17:22:47 2020
