  Page 1                                    Wed May 06 17:23:02 2020

  ******************************************************************
  *                           E P A N E T                          *
  *                   Hydraulic and Water Quality                  *
  *                   Analysis for Pipe Networks                   *
  *                         Version 2.00.12                        *
  ******************************************************************
  
  Analysis begun Wed May 06 17:23:02 2020

   
  Hydraulic Status:
  -----------------------------------------------------------------------
     0:00:00: Balanced after 5 trials
     0:00:00: Reservoir River is emptying
     0:00:00: Reservoir Lake is closed
     0:00:00: Tank 1 is filling at 13.10 ft
     0:00:00: Tank 2 is emptying at 23.50 ft
     0:00:00: Tank 3 is filling at 29.00 ft
   
     0:05:00: Balanced after 2 trials
   
     0:10:00: Balanced after 2 trials
   
     0:15:00: Balanced after 2 trials
   
     0:20:00: Balanced after 2 trials
   
     0:25:00: Balanced after 2 trials
   
     0:30:00: Balanced after 2 trials
   
     0:35:00: Balanced after 2 trials
   
     0:40:00: Balanced after 2 trials
   
     0:45:00: Balanced after 2 trials
   
     0:50:00: Balanced after 2 trials
   
     0:55:00: Balanced after 2 trials
   
     1:00:00: Pump 10 changed by timer control
     1:00:00: Balanced after 7 trials
     1:00:00: Reservoir Lake is emptying
     1:00:00: Pump 10 changed from closed to open
   
     1:05:00: Balanced after 2 trials
   
     1:10:00: Balanced after 2 trials
   
     1:15:00: Balanced after 2 trials
   
     1:20:00: Balanced after 2 trials
   
     1:25:00: Balanced after 2 trials
   
     1:30:00: Balanced after 2 trials
   
     1:35:00: Balanced after 2 trials
   
     1:40:00: Balanced after 2 trials
   
     1:45:00: Balanced after 2 trials
   
     1:50:00: Balanced after 2 trials
   
     1:55:00: Balanced after 2 trials
   
     2:00:00: Balanced after 3 trials
     2:00:00: Tank 2 is filling at 21.07 ft
   
     2:05:00: Balanced after 1 trials
   
     2:10:00: Balanced after 1 trials
   
     2:15:00: Balanced after 1 trials
   
     2:20:00: Balanced after 1 trials
   
     2:25:00: Balanced after 1 trials
   
     2:30:00: Balanced after 1 trials
   
     2:35:00: Balanced after 1 trials
   
     2:40:00: Balanced after 1 trials
   
     2:45:00: Balanced after 1 trials
   
     2:50:00: Balanced after 1 trials
   
     2:55:00: Balanced after 1 trials
   
     3:00:00: Balanced after 3 trials
   
     3:05:00: Balanced after 1 trials
   
     3:10:00: Balanced after 1 trials
   
     3:15:00: Balanced after 1 trials
   
     3:20:00: Balanced after 1 trials
   
     3:25:00: Balanced after 1 trials
   
     3:30:00: Balanced after 1 trials
   
     3:35:00: Balanced after 1 trials
   
     3:40:00: Balanced after 1 trials
   
     3:45:00: Balanced after 1 trials
   
     3:50:00: Balanced after 1 trials
   
     3:55:00: Balanced after 1 trials
   
     4:00:00: Balanced after 3 trials
   
     4:05:00: Balanced after 1 trials
   
     4:10:00: Balanced after 1 trials
   
     4:11:46: Pump 335 changed by Tank 1 control
     4:11:46: Pipe 330 changed by Tank 1 control
     4:11:46: Balanced after 4 trials
     4:11:46: Pipe 330 changed from closed to open
     4:11:46: Pump 335 changed from open to closed
   
     4:15:00: Balanced after 1 trials
   
     4:20:00: Balanced after 2 trials
   
     4:25:00: Balanced after 2 trials
   
     4:30:00: Balanced after 2 trials
   
     4:35:00: Balanced after 2 trials
   
     4:40:00: Balanced after 2 trials
   
     4:45:00: Balanced after 2 trials
   
     4:50:00: Balanced after 2 trials
   
     4:55:00: Balanced after 2 trials
   
     5:00:00: Balanced after 3 trials
     5:00:00: Tank 3 is emptying at 34.34 ft
   
     5:05:00: Balanced after 2 trials
   
     5:10:00: Balanced after 2 trials
   
     5:15:00: Balanced after 2 trials
   
     5:20:00: Balanced after 2 trials
   
     5:25:00: Balanced after 2 trials
   
     5:30:00: Balanced after 2 trials
   
     5:35:00: Balanced after 2 trials
   
     5:40:00: Balanced after 2 trials
   
     5:45:00: Balanced after 2 trials
   
     5:50:00: Balanced after 2 trials
   
     5:55:00: Balanced after 2 trials
   
     6:00:00: Balanced after 3 trials
     6:00:00: Tank 3 is filling at 34.10 ft
   
     6:05:00: Balanced after 2 trials
   
     6:10:00: Balanced after 1 trials
   
     6:15:00: Balanced after 1 trials
   
     6:20:00: Balanced after 1 trials
   
     6:25:00: Balanced after 1 trials
   
     6:30:00: Balanced after 1 trials
   
     6:35:00: Balanced after 1 trials
   
     6:40:00: Balanced after 1 trials
   
     6:45:00: Balanced after 1 trials
   
     6:50:00: Balanced after 1 trials
   
     6:55:00: Balanced after 1 trials
   
     7:00:00: Balanced after 4 trials
     7:00:00: Tank 1 is emptying at 21.06 ft
   
     7:05:00: Balanced after 1 trials
   
     7:10:00: Balanced after 1 trials
   
     7:15:00: Balanced after 1 trials
   
     7:20:00: Balanced after 1 trials
     7:20:00: Tank 1 is filling at 21.05 ft
   
     7:25:00: Balanced after 1 trials
   
     7:30:00: Balanced after 1 trials
   
     7:35:00: Balanced after 1 trials
   
     7:40:00: Balanced after 1 trials
   
     7:45:00: Balanced after 1 trials
   
     7:50:00: Balanced after 1 trials
   
     7:55:00: Balanced after 1 trials
   
     8:00:00: Balanced after 3 trials
   
     8:05:00: Balanced after 1 trials
   
     8:10:00: Balanced after 1 trials
   
     8:15:00: Balanced after 1 trials
   
     8:20:00: Balanced after 1 trials
   
     8:25:00: Balanced after 1 trials
   
     8:30:00: Balanced after 1 trials
   
     8:35:00: Balanced after 1 trials
   
     8:40:00: Balanced after 1 trials
   
     8:45:00: Balanced after 1 trials
   
     8:50:00: Balanced after 1 trials
   
     8:55:00: Balanced after 1 trials
   
     9:00:00: Balanced after 4 trials
     9:00:00: Tank 3 is emptying at 35.02 ft
   
     9:05:00: Balanced after 2 trials
   
     9:10:00: Balanced after 2 trials
   
     9:15:00: Balanced after 2 trials
   
     9:20:00: Balanced after 2 trials
   
     9:25:00: Balanced after 2 trials
   
     9:30:00: Balanced after 2 trials
   
     9:35:00: Balanced after 2 trials
   
     9:40:00: Balanced after 2 trials
   
     9:45:00: Balanced after 2 trials
   
     9:50:00: Balanced after 2 trials
   
     9:55:00: Balanced after 1 trials
   
    10:00:00: Balanced after 3 trials
    10:00:00: Tank 1 is emptying at 21.66 ft
   
    10:05:00: Balanced after 1 trials
   
    10:10:00: Balanced after 1 trials
   
    10:15:00: Balanced after 1 trials
   
    10:20:00: Balanced after 1 trials
   
    10:25:00: Balanced after 1 trials
   
    10:30:00: Balanced after 1 trials
    10:30:00: Tank 2 is emptying at 26.88 ft
   
    10:35:00: Balanced after 1 trials
   
    10:40:00: Balanced after 1 trials
   
    10:45:00: Balanced after 1 trials
   
    10:50:00: Balanced after 1 trials
   
    10:55:00: Balanced after 1 trials
   
    11:00:00: Balanced after 3 trials
   
    11:05:00: Balanced after 1 trials
   
    11:10:00: Balanced after 1 trials
   
    11:15:00: Balanced after 1 trials
   
    11:20:00: Balanced after 1 trials
   
    11:25:00: Balanced after 1 trials
   
    11:30:00: Balanced after 1 trials
   
    11:35:00: Balanced after 1 trials
   
    11:40:00: Balanced after 1 trials
   
    11:45:00: Balanced after 1 trials
   
    11:50:00: Balanced after 1 trials
   
    11:55:00: Balanced after 1 trials
   
    12:00:00: Balanced after 2 trials
   
    12:05:00: Balanced after 1 trials
   
    12:10:00: Balanced after 1 trials
   
    12:15:00: Balanced after 1 trials
   
    12:20:00: Balanced after 1 trials
   
    12:25:00: Balanced after 1 trials
   
    12:30:00: Balanced after 1 trials
   
    12:35:00: Balanced after 1 trials
   
    12:40:00: Balanced after 1 trials
   
    12:45:00: Balanced after 1 trials
   
    12:50:00: Balanced after 1 trials
   
    12:55:00: Balanced after 1 trials
   
    13:00:00: Balanced after 3 trials
    13:00:00: Tank 1 is filling at 20.85 ft
    13:00:00: Tank 2 is filling at 26.62 ft
   
    13:05:00: Balanced after 2 trials
   
    13:10:00: Balanced after 2 trials
   
    13:15:00: Balanced after 2 trials
   
    13:20:00: Balanced after 2 trials
   
    13:25:00: Balanced after 2 trials
   
    13:30:00: Balanced after 2 trials
   
    13:35:00: Balanced after 2 trials
   
    13:40:00: Balanced after 2 trials
   
    13:45:00: Balanced after 2 trials
   
    13:50:00: Balanced after 2 trials
   
    13:55:00: Balanced after 2 trials
   
    14:00:00: Balanced after 3 trials
    14:00:00: Tank 3 is filling at 33.54 ft
   
    14:05:00: Balanced after 2 trials
   
    14:10:00: Balanced after 2 trials
   
    14:15:00: Balanced after 2 trials
   
    14:20:00: Balanced after 2 trials
   
    14:25:00: Balanced after 2 trials
   
    14:30:00: Balanced after 2 trials
   
    14:35:00: Balanced after 2 trials
   
    14:40:00: Balanced after 2 trials
   
    14:45:00: Balanced after 2 trials
   
    14:50:00: Balanced after 2 trials
   
    14:55:00: Balanced after 2 trials
   
    15:00:00: Pump 10 changed by timer control
    15:00:00: Balanced after 5 trials
    15:00:00: Reservoir Lake is closed
    15:00:00: Tank 1 is emptying at 22.07 ft
    15:00:00: Tank 3 is emptying at 33.62 ft
    15:00:00: Pump 10 changed from open to closed
   
    15:05:00: Balanced after 2 trials
   
    15:10:00: Balanced after 2 trials
   
    15:15:00: Balanced after 2 trials
   
    15:20:00: Balanced after 2 trials
   
    15:25:00: Balanced after 2 trials
   
    15:30:00: Balanced after 2 trials
   
    15:35:00: Balanced after 2 trials
   
    15:40:00: Balanced after 2 trials
   
    15:45:00: Balanced after 2 trials
   
    15:50:00: Balanced after 2 trials
   
    15:55:00: Balanced after 2 trials
   
    16:00:00: Balanced after 4 trials
    16:00:00: Tank 2 is emptying at 28.50 ft
   
    16:05:00: Balanced after 1 trials
   
    16:10:00: Balanced after 1 trials
   
    16:15:00: Balanced after 1 trials
   
    16:20:00: Balanced after 1 trials
   
    16:25:00: Balanced after 1 trials
   
    16:30:00: Balanced after 1 trials
   
    16:35:00: Balanced after 1 trials
   
    16:40:00: Balanced after 1 trials
   
    16:45:00: Balanced after 1 trials
   
    16:50:00: Balanced after 1 trials
   
    16:55:00: Balanced after 1 trials
   
    17:00:00: Balanced after 3 trials
    17:00:00: Tank 2 is filling at 27.59 ft
   
    17:05:00: Balanced after 2 trials
   
    17:10:00: Balanced after 2 trials
   
    17:15:00: Balanced after 2 trials
   
    17:20:00: Balanced after 2 trials
   
    17:25:00: Balanced after 2 trials
   
    17:30:00: Balanced after 2 trials
   
    17:35:00: Balanced after 2 trials
   
    17:40:00: Balanced after 2 trials
   
    17:45:00: Balanced after 2 trials
   
    17:50:00: Balanced after 2 trials
   
    17:55:00: Balanced after 2 trials
   
    18:00:00: Balanced after 4 trials
    18:00:00: Tank 1 is filling at 19.49 ft
   
    18:05:00: Balanced after 2 trials
   
    18:10:00: Balanced after 2 trials
   
    18:15:00: Balanced after 2 trials
   
    18:20:00: Balanced after 2 trials
   
    18:25:00: Balanced after 2 trials
   
    18:30:00: Balanced after 2 trials
   
    18:35:00: Balanced after 2 trials
   
    18:40:00: Balanced after 2 trials
   
    18:45:00: Balanced after 2 trials
   
    18:50:00: Balanced after 2 trials
   
    18:55:00: Balanced after 2 trials
   
    19:00:00: Balanced after 3 trials
    19:00:00: Tank 1 is emptying at 19.63 ft
   
    19:05:00: Balanced after 2 trials
   
    19:10:00: Balanced after 2 trials
   
    19:15:00: Balanced after 2 trials
   
    19:20:00: Balanced after 2 trials
   
    19:25:00: Balanced after 2 trials
   
    19:30:00: Balanced after 2 trials
   
    19:35:00: Balanced after 2 trials
   
    19:40:00: Balanced after 2 trials
   
    19:45:00: Balanced after 2 trials
   
    19:50:00: Balanced after 2 trials
   
    19:55:00: Balanced after 2 trials
   
    20:00:00: Balanced after 4 trials
    20:00:00: Tank 2 is emptying at 29.07 ft
   
    20:05:00: Balanced after 1 trials
   
    20:10:00: Balanced after 1 trials
   
    20:15:00: Balanced after 1 trials
   
    20:20:00: Balanced after 1 trials
   
    20:25:00: Balanced after 1 trials
   
    20:30:00: Balanced after 1 trials
   
    20:35:00: Balanced after 1 trials
   
    20:40:00: Balanced after 1 trials
   
    20:45:00: Balanced after 1 trials
   
    20:50:00: Balanced after 1 trials
   
    20:55:00: Balanced after 1 trials
   
    21:00:00: Balanced after 3 trials
   
    21:05:00: Balanced after 2 trials
   
    21:10:00: Balanced after 2 trials
   
    21:15:00: Balanced after 2 trials
   
    21:20:00: Balanced after 2 trials
   
    21:25:00: Balanced after 2 trials
   
    21:30:00: Balanced after 2 trials
   
    21:35:00: Balanced after 2 trials
   
    21:40:00: Balanced after 2 trials
   
    21:45:00: Balanced after 2 trials
   
    21:50:00: Balanced after 2 trials
   
    21:55:00: Balanced after 2 trials
   
    22:00:00: Balanced after 3 trials
   
    22:05:00: Balanced after 2 trials
   
    22:10:00: Balanced after 2 trials
   
    22:15:00: Balanced after 2 trials
   
    22:19:00: Pump 335 changed by Tank 1 control
    22:19:00: Pipe 330 changed by Tank 1 control
    22:19:00: Balanced after 5 trials
    22:19:00: Tank 3 is filling at 29.34 ft
    22:19:00: Pipe 330 changed from open to closed
    22:19:00: Pump 335 changed from closed to open
   
    22:20:00: Balanced after 1 trials
   
    22:25:00: Balanced after 2 trials
   
    22:30:00: Balanced after 2 trials
   
    22:35:00: Balanced after 2 trials
   
    22:40:00: Balanced after 2 trials
   
    22:45:00: Balanced after 2 trials
   
    22:50:00: Balanced after 2 trials
   
    22:55:00: Balanced after 2 trials
   
    23:00:00: Balanced after 3 trials
   
    23:05:00: Balanced after 2 trials
   
    23:10:00: Balanced after 2 trials
   
    23:15:00: Balanced after 2 trials
   
    23:20:00: Balanced after 2 trials
   
    23:25:00: Balanced after 2 trials
   
    23:30:00: Balanced after 2 trials
   
    23:35:00: Balanced after 2 trials
   
    23:40:00: Balanced after 2 trials
   
    23:45:00: Balanced after 2 trials
   
    23:50:00: Balanced after 2 trials
   
    23:55:00: Balanced after 2 trials
   
    24:00:00: Balanced after 4 trials
    24:00:00: Tank 1 is filling at 15.67 ft
   
   
  Node Results at 0:00:00 hrs:
  --------------------------------------------------------
                     Demand      Head  Pressure  Chemical
  Node                  gpm        ft       psi      mg/L
  --------------------------------------------------------
  10                   0.00    146.21     -0.34      0.00
  15                 637.43    124.52     40.09      0.00
  20                   0.00    158.00     12.57      0.00
  35                1431.27    146.34     57.99      0.00
  40                   0.00    145.00      5.68      0.00
  50                   0.00    140.00     10.18      0.00
  60                   0.00    209.02     90.57      0.00
  601                  0.00    302.54    131.09      0.00
  61                   0.00    302.54    131.09      0.00
  101                246.94    146.21     45.16      0.00
  103                173.16    146.18     44.71      0.00
  105                175.98    147.48     51.55      0.00
  107                 71.03    147.47     54.37      0.00
  109                300.82    146.18     54.54      0.00
  111                184.52    146.74     59.25      0.00
  113                 26.01    146.77     62.73      0.00
  115                 67.73    147.55     57.87      0.00
  117                153.02    150.59     59.36      0.00
  119                228.97    157.89     67.55      0.00
  120                  0.00    155.53     67.39      0.00
  121                 54.12    161.27     70.75      0.00
  123                  0.00    165.72     67.04      0.00
  125                 59.28    160.64     64.84      0.00
  127                 22.96    158.81     44.55      0.00
  129                  0.00    158.80     46.71      0.00
  131                 55.58    158.78     66.20      0.00
  139                  7.66    153.06     52.89      0.00
  141                 12.81    148.98     62.82      0.00
  143                  8.06    137.61     61.58      0.00
  145                 35.92    150.29     64.69      0.00
  147                 11.12    151.28     57.53      0.00
  149                 35.19    151.69     58.79      0.00
  151                187.82    155.73     52.96      0.00
  153                 57.42    155.83     38.84      0.00
  157                 67.33    155.51     61.70      0.00
  159                 53.72    152.22     63.36      0.00
  161                 20.54    150.00     63.26      0.00
  163                 12.25    149.55     62.63      0.00
  164                  0.00    149.55     62.63      0.00
  166                  3.38    149.55     65.67      0.00
  167                 18.93    147.72     66.17      0.00
  169                  0.00    147.72     66.17      0.00
  171                 51.14    146.65     65.28      0.00
  173                  0.00    146.63     65.27      0.00
  177                 75.62    146.32     59.93      0.00
  179                  0.00    146.29     59.92      0.00
  181                  0.00    146.35     59.95      0.00
  183                  0.00    146.30     58.62      0.00
  184                  0.00    145.10     55.94      0.00
  185                 33.34    145.68     56.19      0.00
  187                  0.00    146.39     58.01      0.00
  189                140.30    146.69     61.83      0.00
  191                106.47    146.67     52.72      0.00
  193                 92.70    146.77     55.80      0.00
  195                  0.00    146.84     56.91      0.00
  197                 22.15    146.69     53.59      0.00
  199                155.12    141.46     62.16      0.00
  201                 57.99    140.73     60.93      0.00
  203               4385.10    140.57     60.04      0.00
  204                  0.00    146.14     54.22      0.00
  205                 84.97    141.43     52.18      0.00
  206                  0.00    140.46     60.43      0.00
  207                 90.21    140.71     57.07      0.00
  208                  0.00    140.18     53.81      0.00
  209                  1.13    139.70     61.40      0.00
  211                 11.27    139.54     57.43      0.00
  213                 18.12    139.47     57.40      0.00
  215                119.85    139.29     57.32      0.00
  217                 31.49    139.27     57.75      0.00
  219                 53.72    139.26     58.61      0.00
  225                 29.64    139.27     56.88      0.00
  229                 83.43    139.35     55.83      0.00
  231                 21.42    139.34     58.21      0.00
  237                 20.29    139.43     54.35      0.00
  239                 57.99    139.42     54.78      0.00
  241                  0.00    139.42     54.78      0.00
  243                  5.64    139.42     54.35      0.00
  247                 91.49    139.42     52.61      0.00
  249                  0.00    139.42     52.61      0.00
  251                 31.41    139.43     47.41      0.00
  253                 70.88    139.47     44.83      0.00
  255                 52.51    139.52     48.75      0.00
  257                  0.00    152.50     58.71      0.00
  259                  0.00    152.07     55.06      0.00
  261                  0.00    150.54     65.23      0.00
  263                  0.00    150.38     65.16      0.00
  265                  0.00    148.30     64.26      0.00
  267                  0.00    146.78     54.50      0.00
  269                  0.00    147.08     63.73      0.00
  271                  0.00    146.43     60.85      0.00
  273                  0.00    141.43     57.81      0.00
  275                  0.00    140.73     56.65      0.00
  River           -13149.27    220.00      0.00      0.00  Reservoir
  Lake                 0.00    167.00      0.00      0.00  Reservoir
  1                  632.55    145.00      5.68      0.00  Tank
  2                 -264.24    140.00     10.18      0.00  Tank
  3                 2364.62    158.00     12.57      0.00  Tank
   
   
  Link Results at 0:00:00 hrs:
  ----------------------------------------------
                       Flow  Velocity  Headloss
  Link                  gpm       fps   /1000ft
  ----------------------------------------------
  20               -2364.62      0.10      0.00
  40                -632.55      0.03      0.00
  50                 264.24      0.01      0.00
  60               13149.27      9.33      8.92
  101                  0.00      0.00      0.00
  103                168.53      0.27      0.02
  105               -415.46      1.18      0.50
  107                 34.85      0.10      0.01
  109                 -4.63      0.01      0.00
  111               -305.45      0.87      0.28
  112                495.73      1.41      0.69
  113                -68.56      0.19      0.02
  114                124.59      0.80      0.39
  115                -36.18      0.23      0.04
  116                 30.02      0.09      0.00
  117                626.29      1.78      1.07
  119               -724.24      2.05      1.39
  120               1140.26      3.23      3.23
  121               1023.01      2.90      2.64
  122                363.30      2.32      2.80
  123               9704.91      4.40      1.69
  125              13149.27      5.97      2.97
  129               3026.95      2.15      0.67
  131               2753.10      1.95      0.57
  133              -2364.62      2.41      1.04
  135                365.53      0.26      0.01
  137                 55.58      0.09      0.00
  145                309.95      1.98      2.09
  147                302.29      1.93      1.99
  149               -645.49      4.12      8.12
  151               -637.43      4.07      7.93
  153                356.00      1.01      0.37
  155                391.92      1.11      0.45
  159               -403.04      1.14      0.47
  161               -438.23      2.80      3.96
  163               -157.15      0.45      0.08
  169                214.57      1.37      1.06
  171                468.90      1.33      0.62
  173               7866.78      3.57      1.15
  175               7799.45      3.54      1.13
  177               7745.73      3.52      1.11
  179               7477.92      3.39      1.04
  180                  3.38      0.01      0.00
  181                  3.38      0.01      0.00
  183               7258.41      3.29      0.99
  185                -18.93      0.12      0.01
  186                342.41      2.19      2.51
  187               6637.23      3.01      0.84
  189               4669.30      2.12      0.44
  191              -1916.79      1.36      0.29
  193              -1431.27      1.02      0.17
  195                628.46      1.78      1.07
  197                552.84      1.57      0.85
  199                -79.72      0.23      0.02
  201               -632.55      1.79      1.09
  202                540.13      3.45      5.84
  203                231.07      1.47      1.21
  204                540.13      1.53      0.81
  205                342.41      0.97      0.35
  207                310.78      0.88      0.29
  209                157.70      1.01      0.60
  211                602.25      1.71      0.99
  213                184.71      0.52      0.11
  215                149.46      0.42      0.08
  217               -239.01      0.68      0.18
  219               -247.27      0.70      0.19
  221                247.27      1.58      1.37
  223                 52.17      0.15      0.01
  225                 74.32      0.21      0.02
  229               4669.30      3.31      1.29
  231               4399.53      3.12      1.16
  233               4385.10      3.11      1.34
  235                114.65      0.33      0.05
  237                458.87      1.30      0.60
  238                436.05      1.24      0.54
  239                 67.38      0.19      0.02
  240                436.05      1.24      0.54
  241                436.05      1.24      0.54
  243                434.92      0.69      0.13
  245                297.56      0.47      0.07
  247                234.69      0.37      0.04
  249                114.84      0.18      0.01
  251                 53.72      0.11      0.01
  257                 29.64      0.08      0.00
  261                 44.75      0.29      0.06
  263                 21.42      0.06      0.00
  269                126.09      0.36      0.05
  271                 60.11      0.38      0.10
  273                 45.68      0.13      0.01
  275                 -1.12      0.00      0.00
  277                  5.64      0.02      0.00
  281                 -6.76      0.03      0.00
  283                -11.19      0.03      0.00
  285                -11.25      0.03      0.00
  287                -87.00      0.36      0.07
  289                264.24      1.08      0.52
  291                 70.88      0.29      0.05
  293                 53.85      0.34      0.08
  295                -22.44      0.06      0.00
  297                480.54      3.07      4.70
  299                230.87      1.47      1.21
  301                230.87      1.47      1.21
  303                249.67      1.59      1.40
  305                145.75      0.41      0.07
  307                395.42      1.12      0.45
  309                203.88      1.30      0.96
  311                -54.42      0.15      0.01
  313                459.32      1.30      0.60
  315              -2059.73      1.46      0.33
  317                110.94      0.71      0.31
  319                  3.71      0.01      0.00
  321               7462.30      3.39      1.04
  323                -43.56      0.12      0.01
  325                142.93      0.91      0.50
  329              13149.27      5.97      3.01
  330                  0.00      0.00      0.00
  333                 -0.00      0.00      0.00
  10                   0.00      0.00      0.00  Pump
  335              13149.27      0.00    -93.52  Pump
   
   
  Node Results at 0:05:00 hrs:
  --------------------------------------------------------
                     Demand      Head  Pressure  Chemical
  Node                  gpm        ft       psi      mg/L
  --------------------------------------------------------
  10                   0.00    146.26     -0.32      0.00
  15                 637.43    124.58     40.12      0.00
  20                   0.00    158.07     12.60      0.00
  35                1431.27    146.39     58.02      0.00
  40                   0.00    145.07      5.71      0.00
  50                   0.00    139.91     10.14      0.00
  60                   0.00    209.03     90.57      0.00
  601                  0.00    302.56    131.10      0.00
  61                   0.00    302.56    131.10      0.00
  101                246.94    146.26     45.18      0.00
  103                173.16    146.23     44.73      0.00
  105                175.98    147.53     51.58      0.00
  107                 71.03    147.52     54.39      0.00
  109                300.82    146.23     54.57      0.00
  111                184.52    146.80     59.27      0.00
  113                 26.01    146.83     62.75      0.00
  115                 67.73    147.60     57.89      0.00
  117                153.02    150.64     59.38      0.00
  119                228.97    157.95     67.57      0.00
  120                  0.00    155.59     67.42      0.00
  121                 54.12    161.33     70.77      0.00
  123                  0.00    165.78     67.07      0.00
  125                 59.28    160.71     64.87      0.00
  127                 22.96    158.88     44.58      0.00
  129                  0.00    158.87     46.74      0.00
  131                 55.58    158.85     66.23      0.00
  139                  7.66    153.13     52.92      0.00
  141                 12.81    149.04     62.85      0.00
  143                  8.06    137.67     61.60      0.00
  145                 35.92    150.35     64.72      0.00
  147                 11.12    151.34     57.56      0.00
  149                 35.19    151.75     58.82      0.00
  151                187.82    155.79     52.99      0.00
  153                 57.42    155.89     38.86      0.00
  157                 67.33    155.56     61.73      0.00
  159                 53.72    152.28     63.38      0.00
  161                 20.54    150.05     63.28      0.00
  163                 12.25    149.60     62.65      0.00
  164                  0.00    149.60     62.65      0.00
  166                  3.38    149.60     65.69      0.00
  167                 18.93    147.77     66.19      0.00
  169                  0.00    147.77     66.19      0.00
  171                 51.14    146.70     65.30      0.00
  173                  0.00    146.68     65.29      0.00
  177                 75.62    146.37     59.95      0.00
  179                  0.00    146.34     59.94      0.00
  181                  0.00    146.40     59.97      0.00
  183                  0.00    146.35     58.65      0.00
  184                  0.00    145.14     55.96      0.00
  185                 33.34    145.73     56.21      0.00
  187                  0.00    146.44     58.04      0.00
  189                140.30    146.74     61.85      0.00
  191                106.47    146.73     52.74      0.00
  193                 92.70    146.82     55.82      0.00
  195                  0.00    146.89     56.93      0.00
  197                 22.15    146.74     53.62      0.00
  199                155.12    141.49     62.17      0.00
  201                 57.99    140.76     60.95      0.00
  203               4385.10    140.60     60.05      0.00
  204                  0.00    146.19     54.24      0.00
  205                 84.97    141.46     52.19      0.00
  206                  0.00    140.47     60.43      0.00
  207                 90.21    140.73     57.08      0.00
  208                  0.00    140.18     53.81      0.00
  209                  1.13    139.68     61.39      0.00
  211                 11.27    139.51     57.42      0.00
  213                 18.12    139.45     57.39      0.00
  215                119.85    139.26     57.31      0.00
  217                 31.49    139.25     57.74      0.00
  219                 53.72    139.23     58.60      0.00
  225                 29.64    139.24     56.87      0.00
  229                 83.43    139.31     55.81      0.00
  231                 21.42    139.31     58.19      0.00
  237                 20.29    139.38     54.33      0.00
  239                 57.99    139.38     54.76      0.00
  241                  0.00    139.38     54.76      0.00
  243                  5.64    139.38     54.33      0.00
  247                 91.49    139.38     52.59      0.00
  249                  0.00    139.38     52.59      0.00
  251                 31.41    139.38     47.39      0.00
  253                 70.88    139.41     44.81      0.00
  255                 52.51    139.46     48.73      0.00
  257                  0.00    152.55     58.74      0.00
  259                  0.00    152.13     55.09      0.00
  261                  0.00    150.59     65.25      0.00
  263                  0.00    150.44     65.18      0.00
  265                  0.00    148.35     64.28      0.00
  267                  0.00    146.83     54.52      0.00
  269                  0.00    147.13     63.75      0.00
  271                  0.00    146.49     60.87      0.00
  273                  0.00    141.46     57.83      0.00
  275                  0.00    140.76     56.66      0.00
  River           -13147.24    220.00      0.00      0.00  Reservoir
  Lake                 0.00    167.00      0.00      0.00  Reservoir
  1                  626.49    145.07      5.71      0.00  Tank
  2                 -254.15    139.91     10.14      0.00  Tank
  3                 2358.56    158.07     12.60      0.00  Tank
   
   
  Link Results at 0:05:00 hrs:
  ----------------------------------------------
                       Flow  Velocity  Headloss
  Link                  gpm       fps   /1000ft
  ----------------------------------------------
  20               -2358.56      0.10      0.00
  40                -626.49      0.03      0.00
  50                 254.15      0.01      0.00
  60               13147.24      9.32      8.91
  101                  0.00      0.00      0.00
  103                168.65      0.27      0.02
  105               -415.59      1.18      0.50
  107                 34.93      0.10      0.01
  109                 -4.51      0.01      0.00
  111               -305.33      0.87      0.28
  112                496.01      1.41      0.69
  113                -68.36      0.19      0.02
  114                124.68      0.80      0.39
  115                -36.10      0.23      0.04
  116                 30.31      0.09      0.00
  117                626.50      1.78      1.07
  119               -724.52      2.06      1.40
  120               1140.62      3.24      3.23
  121               1023.35      2.90      2.65
  122                363.42      2.32      2.80
  123               9708.62      4.41      1.69
  125              13147.24      5.97      2.97
  129               3021.08      2.14      0.67
  131               2747.16      1.95      0.56
  133              -2358.56      2.41      1.03
  135                365.64      0.26      0.01
  137                 55.58      0.09      0.00
  145                310.07      1.98      2.09
  147                302.41      1.93      1.99
  149               -645.49      4.12      8.12
  151               -637.43      4.07      7.93
  153                355.89      1.01      0.37
  155                391.80      1.11      0.45
  159               -402.92      1.14      0.47
  161               -438.11      2.80      3.96
  163               -157.22      0.45      0.08
  169                214.64      1.37      1.06
  171                468.71      1.33      0.62
  173               7870.31      3.57      1.15
  175               7802.99      3.54      1.13
  177               7749.27      3.52      1.11
  179               7481.42      3.40      1.04
  180                  3.38      0.01      0.00
  181                  3.38      0.01      0.00
  183               7261.93      3.30      0.99
  185                -18.93      0.12      0.01
  186                342.96      2.19      2.52
  187               6640.92      3.01      0.84
  189               4678.15      2.12      0.44
  191              -1911.63      1.36      0.29
  193              -1431.27      1.02      0.17
  195                623.33      1.77      1.06
  197                547.71      1.55      0.83
  199                -78.79      0.22      0.02
  201               -626.49      1.78      1.07
  202                541.36      3.46      5.86
  203                231.75      1.48      1.22
  204                541.36      1.54      0.81
  205                342.96      0.97      0.35
  207                310.54      0.88      0.29
  209                157.91      1.01      0.60
  211                602.08      1.71      0.99
  213                185.04      0.52      0.11
  215                149.64      0.42      0.08
  217               -239.14      0.68      0.18
  219               -247.31      0.70      0.19
  221                247.31      1.58      1.37
  223                 52.37      0.15      0.01
  225                 74.52      0.21      0.02
  229               4678.15      3.32      1.30
  231               4406.89      3.13      1.16
  233               4385.10      3.11      1.34
  235                116.15      0.33      0.05
  237                461.41      1.31      0.61
  238                446.13      1.27      0.57
  239                 74.92      0.21      0.02
  240                446.13      1.27      0.57
  241                446.13      1.27      0.57
  243                445.00      0.71      0.14
  245                299.31      0.48      0.07
  247                234.69      0.37      0.04
  249                114.84      0.18      0.01
  251                 53.72      0.11      0.01
  257                 29.64      0.08      0.00
  261                 46.50      0.30      0.06
  263                 21.42      0.06      0.00
  269                134.42      0.38      0.06
  271                 58.36      0.37      0.09
  273                 55.77      0.16      0.01
  275                  2.80      0.01      0.00
  277                  5.64      0.02      0.00
  281                 -2.85      0.01      0.00
  283                 -5.02      0.01      0.00
  285                -13.67      0.04      0.00
  287                -80.67      0.33      0.06
  289                254.15      1.04      0.49
  291                 70.88      0.29      0.05
  293                 50.10      0.32      0.07
  295                -18.69      0.05      0.00
  297                480.70      3.07      4.70
  299                230.95      1.47      1.21
  301                230.95      1.47      1.21
  303                249.75      1.59      1.40
  305                145.80      0.41      0.07
  307                395.55      1.12      0.45
  309                203.86      1.30      0.96
  311                -54.22      0.15      0.01
  313                459.11      1.30      0.60
  315              -2054.60      1.46      0.33
  317                111.13      0.71      0.31
  319                  5.02      0.01      0.00
  321               7465.79      3.39      1.04
  323                -36.20      0.10      0.01
  325                142.97      0.91      0.50
  329              13147.24      5.97      3.01
  330                  0.00      0.00      0.00
  333                 -0.00      0.00      0.00
  10                   0.00      0.00      0.00  Pump
  335              13147.24      0.00    -93.54  Pump
   
   
  Node Results at 0:10:00 hrs:
  --------------------------------------------------------
                     Demand      Head  Pressure  Chemical
  Node                  gpm        ft       psi      mg/L
  --------------------------------------------------------
  10                   0.00    146.32     -0.30      0.00
  15                 637.43    124.65     40.14      0.00
  20                   0.00    158.15     12.63      0.00
  35                1431.27    146.45     58.04      0.00
  40                   0.00    145.15      5.74      0.00
  50                   0.00    139.82     10.11      0.00
  60                   0.00    209.03     90.57      0.00
  601                  0.00    302.58    131.11      0.00
  61                   0.00    302.58    131.11      0.00
  101                246.94    146.32     45.20      0.00
  103                173.16    146.29     44.75      0.00
  105                175.98    147.58     51.60      0.00
  107                 71.03    147.58     54.41      0.00
  109                300.82    146.29     54.59      0.00
  111                184.52    146.85     59.30      0.00
  113                 26.01    146.88     62.78      0.00
  115                 67.73    147.65     57.91      0.00
  117                153.02    150.70     59.40      0.00
  119                228.97    158.01     67.60      0.00
  120                  0.00    155.65     67.44      0.00
  121                 54.12    161.39     70.80      0.00
  123                  0.00    165.84     67.09      0.00
  125                 59.28    160.77     64.90      0.00
  127                 22.96    158.96     44.61      0.00
  129                  0.00    158.94     46.77      0.00
  131                 55.58    158.92     66.26      0.00
  139                  7.66    153.20     52.95      0.00
  141                 12.81    149.11     62.87      0.00
  143                  8.06    137.74     61.63      0.00
  145                 35.92    150.42     64.74      0.00
  147                 11.12    151.40     57.59      0.00
  149                 35.19    151.81     58.85      0.00
  151                187.82    155.85     53.02      0.00
  153                 57.42    155.95     38.89      0.00
  157                 67.33    155.62     61.75      0.00
  159                 53.72    152.33     63.41      0.00
  161                 20.54    150.10     63.31      0.00
  163                 12.25    149.65     62.68      0.00
  164                  0.00    149.65     62.68      0.00
  166                  3.38    149.65     65.71      0.00
  167                 18.93    147.82     66.22      0.00
  169                  0.00    147.82     66.22      0.00
  171                 51.14    146.75     65.32      0.00
  173                  0.00    146.73     65.31      0.00
  177                 75.62    146.42     59.98      0.00
  179                  0.00    146.39     59.97      0.00
  181                  0.00    146.45     59.99      0.00
  183                  0.00    146.40     58.67      0.00
  184                  0.00    145.19     55.98      0.00
  185                 33.34    145.78     56.23      0.00
  187                  0.00    146.49     58.06      0.00
  189                140.30    146.79     61.87      0.00
  191                106.47    146.78     52.77      0.00
  193                 92.70    146.87     55.84      0.00
  195                  0.00    146.94     56.95      0.00
  197                 22.15    146.79     53.64      0.00
  199                155.12    141.52     62.19      0.00
  201                 57.99    140.79     60.96      0.00
  203               4385.10    140.63     60.07      0.00
  204                  0.00    146.24     54.27      0.00
  205                 84.97    141.49     52.21      0.00
  206                  0.00    140.49     60.44      0.00
  207                 90.21    140.75     57.09      0.00
  208                  0.00    140.19     53.81      0.00
  209                  1.13    139.66     61.38      0.00
  211                 11.27    139.49     57.41      0.00
  213                 18.12    139.42     57.38      0.00
  215                119.85    139.24     57.30      0.00
  217                 31.49    139.22     57.72      0.00
  219                 53.72    139.21     58.59      0.00
  225                 29.64    139.21     56.85      0.00
  229                 83.43    139.27     55.80      0.00
  231                 21.42    139.27     58.18      0.00
  237                 20.29    139.34     54.31      0.00
  239                 57.99    139.33     54.74      0.00
  241                  0.00    139.33     54.74      0.00
  243                  5.64    139.33     54.31      0.00
  247                 91.49    139.33     52.57      0.00
  249                  0.00    139.33     52.57      0.00
  251                 31.41    139.34     47.38      0.00
  253                 70.88    139.35     44.78      0.00
  255                 52.51    139.40     48.70      0.00
  257                  0.00    152.61     58.76      0.00
  259                  0.00    152.19     55.11      0.00
  261                  0.00    150.65     65.28      0.00
  263                  0.00    150.49     65.21      0.00
  265                  0.00    148.40     64.30      0.00
  267                  0.00    146.88     54.55      0.00
  269                  0.00    147.18     63.77      0.00
  271                  0.00    146.54     60.89      0.00
  273                  0.00    141.49     57.84      0.00
  275                  0.00    140.79     56.67      0.00
  River           -13145.21    220.00      0.00      0.00  Reservoir
  Lake                 0.00    167.00      0.00      0.00  Reservoir
  1                  620.61    145.15      5.74      0.00  Tank
  2                 -244.32    139.82     10.11      0.00  Tank
  3                 2352.58    158.15     12.63      0.00  Tank
   
   
  Link Results at 0:10:00 hrs:
  ----------------------------------------------
                       Flow  Velocity  Headloss
  Link                  gpm       fps   /1000ft
  ----------------------------------------------
  20               -2352.58      0.10      0.00
  40                -620.61      0.03      0.00
  50                 244.32      0.01      0.00
  60               13145.21      9.32      8.91
  101                  0.00      0.00      0.00
  103                168.78      0.27      0.02
  105               -415.71      1.18      0.50
  107                 35.01      0.10      0.01
  109                 -4.38      0.01      0.00
  111               -305.20      0.87      0.28
  112                496.28      1.41      0.69
  113                -68.16      0.19      0.02
  114                124.77      0.80      0.39
  115                -36.02      0.23      0.04
  116                 30.59      0.09      0.00
  117                626.70      1.78      1.07
  119               -724.80      2.06      1.40
  120               1140.97      3.24      3.24
  121               1023.67      2.90      2.65
  122                363.55      2.32      2.80
  123               9712.26      4.41      1.69
  125              13145.21      5.97      2.97
  129               3015.28      2.14      0.67
  131               2741.29      1.94      0.56
  133              -2352.58      2.40      1.03
  135                365.75      0.26      0.01
  137                 55.58      0.09      0.00
  145                310.18      1.98      2.09
  147                302.52      1.93      2.00
  149               -645.49      4.12      8.12
  151               -637.43      4.07      7.93
  153                355.77      1.01      0.37
  155                391.69      1.11      0.45
  159               -402.81      1.14      0.47
  161               -438.00      2.80      3.96
  163               -157.29      0.45      0.08
  169                214.71      1.37      1.06
  171                468.53      1.33      0.62
  173               7873.79      3.57      1.15
  175               7806.46      3.54      1.13
  177               7752.74      3.52      1.12
  179               7484.85      3.40      1.05
  180                  3.38      0.01      0.00
  181                  3.38      0.01      0.00
  183               7265.38      3.30      0.99
  185                -18.93      0.12      0.01
  186                343.49      2.19      2.52
  187               6644.53      3.02      0.84
  189               4686.78      2.13      0.44
  191              -1906.61      1.35      0.29
  193              -1431.27      1.02      0.17
  195                618.35      1.75      1.04
  197                542.73      1.54      0.82
  199                -77.89      0.22      0.02
  201               -620.61      1.76      1.05
  202                542.57      3.46      5.89
  203                232.42      1.48      1.22
  204                542.57      1.54      0.82
  205                343.49      0.97      0.35
  207                310.31      0.88      0.29
  209                158.12      1.01      0.60
  211                601.93      1.71      0.99
  213                185.37      0.53      0.11
  215                149.81      0.42      0.08
  217               -239.27      0.68      0.18
  219               -247.36      0.70      0.19
  221                247.36      1.58      1.37
  223                 52.56      0.15      0.01
  225                 74.72      0.21      0.02
  229               4686.78      3.32      1.30
  231               4414.01      3.13      1.17
  233               4385.10      3.11      1.34
  235                117.66      0.33      0.05
  237                463.97      1.32      0.61
  238                455.96      1.29      0.59
  239                 82.20      0.23      0.02
  240                455.96      1.29      0.59
  241                455.96      1.29      0.59
  243                454.83      0.73      0.15
  245                301.07      0.48      0.07
  247                234.69      0.37      0.04
  249                114.84      0.18      0.01
  251                 53.72      0.11      0.01
  257                 29.64      0.08      0.00
  261                 48.26      0.31      0.07
  263                 21.42      0.06      0.00
  269                142.49      0.40      0.07
  271                 56.59      0.36      0.09
  273                 65.60      0.19      0.02
  275                  6.60      0.02      0.00
  277                  5.64      0.02      0.00
  281                  0.95      0.00      0.00
  283                  1.01      0.00      0.00
  285                -16.04      0.05      0.00
  287                -74.50      0.30      0.05
  289                244.32      1.00      0.45
  291                 70.88      0.29      0.05
  293                 46.44      0.30      0.06
  295                -15.03      0.04      0.00
  297                480.85      3.07      4.71
  299                231.02      1.47      1.21
  301                231.02      1.47      1.21
  303                249.83      1.59      1.40
  305                145.85      0.41      0.07
  307                395.68      1.12      0.46
  309                203.84      1.30      0.96
  311                -54.03      0.15      0.01
  313                458.92      1.30      0.60
  315              -2049.62      1.45      0.33
  317                111.29      0.71      0.31
  319                  6.37      0.02      0.00
  321               7469.22      3.39      1.04
  323                -29.09      0.08      0.00
  325                143.01      0.91      0.50
  329              13145.21      5.97      3.01
  330                  0.00      0.00      0.00
  333                 -0.00      0.00      0.00
  10                   0.00      0.00      0.00  Pump
  335              13145.21      0.00    -93.55  Pump
   
   
  Node Results at 0:15:00 hrs:
  --------------------------------------------------------
                     Demand      Head  Pressure  Chemical
  Node                  gpm        ft       psi      mg/L
  --------------------------------------------------------
  10                   0.00    146.37     -0.27      0.00
  15                 637.43    124.71     40.17      0.00
  20                   0.00    158.22     12.66      0.00
  35                1431.27    146.50     58.06      0.00
  40                   0.00    145.22      5.77      0.00
  50                   0.00    139.74     10.07      0.00
  60                   0.00    209.03     90.57      0.00
  601                  0.00    302.61    131.12      0.00
  61                   0.00    302.61    131.12      0.00
  101                246.94    146.37     45.22      0.00
  103                173.16    146.34     44.78      0.00
  105                175.98    147.64     51.62      0.00
  107                 71.03    147.63     54.43      0.00
  109                300.82    146.34     54.61      0.00
  111                184.52    146.90     59.32      0.00
  113                 26.01    146.93     62.80      0.00
  115                 67.73    147.70     57.93      0.00
  117                153.02    150.75     59.43      0.00
  119                228.97    158.07     67.62      0.00
  120                  0.00    155.70     67.47      0.00
  121                 54.12    161.46     70.83      0.00
  123                  0.00    165.90     67.12      0.00
  125                 59.28    160.84     64.92      0.00
  127                 22.96    159.03     44.64      0.00
  129                  0.00    159.01     46.80      0.00
  131                 55.58    158.99     66.29      0.00
  139                  7.66    153.26     52.98      0.00
  141                 12.81    149.17     62.90      0.00
  143                  8.06    137.80     61.66      0.00
  145                 35.92    150.48     64.77      0.00
  147                 11.12    151.46     57.61      0.00
  149                 35.19    151.88     58.88      0.00
  151                187.82    155.91     53.04      0.00
  153                 57.42    156.01     38.91      0.00
  157                 67.33    155.68     61.78      0.00
  159                 53.72    152.39     63.43      0.00
  161                 20.54    150.15     63.33      0.00
  163                 12.25    149.70     62.70      0.00
  164                  0.00    149.70     62.70      0.00
  166                  3.38    149.70     65.73      0.00
  167                 18.93    147.87     66.24      0.00
  169                  0.00    147.87     66.24      0.00
  171                 51.14    146.80     65.34      0.00
  173                  0.00    146.78     65.33      0.00
  177                 75.62    146.47     60.00      0.00
  179                  0.00    146.45     59.99      0.00
  181                  0.00    146.50     60.01      0.00
  183                  0.00    146.45     58.69      0.00
  184                  0.00    145.23     56.00      0.00
  185                 33.34    145.82     56.25      0.00
  187                  0.00    146.54     58.08      0.00
  189                140.30    146.84     61.89      0.00
  191                106.47    146.83     52.79      0.00
  193                 92.70    146.92     55.86      0.00
  195                  0.00    146.99     56.98      0.00
  197                 22.15    146.84     53.66      0.00
  199                155.12    141.55     62.20      0.00
  201                 57.99    140.82     60.97      0.00
  203               4385.10    140.66     60.08      0.00
  204                  0.00    146.29     54.29      0.00
  205                 84.97    141.52     52.22      0.00
  206                  0.00    140.50     60.45      0.00
  207                 90.21    140.78     57.10      0.00
  208                  0.00    140.19     53.81      0.00
  209                  1.13    139.64     61.37      0.00
  211                 11.27    139.46     57.39      0.00
  213                 18.12    139.39     57.37      0.00
  215                119.85    139.21     57.29      0.00
  217                 31.49    139.19     57.71      0.00
  219                 53.72    139.18     58.57      0.00
  225                 29.64    139.19     56.84      0.00
  229                 83.43    139.24     55.78      0.00
  231                 21.42    139.23     58.16      0.00
  237                 20.29    139.30     54.29      0.00
  239                 57.99    139.29     54.72      0.00
  241                  0.00    139.29     54.72      0.00
  243                  5.64    139.29     54.29      0.00
  247                 91.49    139.29     52.56      0.00
  249                  0.00    139.29     52.56      0.00
  251                 31.41    139.29     47.36      0.00
  253                 70.88    139.30     44.76      0.00
  255                 52.51    139.35     48.68      0.00
  257                  0.00    152.67     58.78      0.00
  259                  0.00    152.24     55.13      0.00
  261                  0.00    150.70     65.30      0.00
  263                  0.00    150.54     65.23      0.00
  265                  0.00    148.45     64.32      0.00
  267                  0.00    146.94     54.57      0.00
  269                  0.00    147.23     63.79      0.00
  271                  0.00    146.59     60.92      0.00
  273                  0.00    141.52     57.85      0.00
  275                  0.00    140.82     56.68      0.00
  River           -13143.18    220.00      0.00      0.00  Reservoir
  Lake                 0.00    167.00      0.00      0.00  Reservoir
  1                  614.91    145.22      5.77      0.00  Tank
  2                 -234.74    139.74     10.07      0.00  Tank
  3                 2346.67    158.22     12.66      0.00  Tank
   
   
  Link Results at 0:15:00 hrs:
  ----------------------------------------------
                       Flow  Velocity  Headloss
  Link                  gpm       fps   /1000ft
  ----------------------------------------------
  20               -2346.67      0.10      0.00
  40                -614.91      0.03      0.00
  50                 234.74      0.01      0.00
  60               13143.18      9.32      8.91
  101                  0.00      0.00      0.00
  103                168.90      0.27      0.02
  105               -415.83      1.18      0.50
  107                 35.08      0.10      0.01
  109                 -4.26      0.01      0.00
  111               -305.08      0.87      0.28
  112                496.55      1.41      0.69
  113                -67.96      0.19      0.02
  114                124.85      0.80      0.39
  115                -35.95      0.23      0.04
  116                 30.87      0.09      0.00
  117                626.90      1.78      1.07
  119               -725.08      2.06      1.40
  120               1141.32      3.24      3.24
  121               1023.99      2.90      2.65
  122                363.68      2.32      2.81
  123               9715.84      4.41      1.69
  125              13143.18      5.97      2.97
  129               3009.55      2.13      0.67
  131               2735.49      1.94      0.56
  133              -2346.67      2.40      1.02
  135                365.87      0.26      0.01
  137                 55.58      0.09      0.00
  145                310.29      1.98      2.09
  147                302.63      1.93      2.00
  149               -645.49      4.12      8.12
  151               -637.43      4.07      7.93
  153                355.66      1.01      0.37
  155                391.58      1.11      0.45
  159               -402.69      1.14      0.47
  161               -437.89      2.79      3.96
  163               -157.36      0.45      0.08
  169                214.78      1.37      1.06
  171                468.35      1.33      0.62
  173               7877.20      3.58      1.15
  175               7809.87      3.54      1.13
  177               7756.15      3.52      1.12
  179               7488.21      3.40      1.05
  180                  3.38      0.01      0.00
  181                  3.38      0.01      0.00
  183               7268.77      3.30      0.99
  185                -18.93      0.12      0.01
  186                344.01      2.20      2.53
  187               6648.07      3.02      0.84
  189               4695.19      2.13      0.44
  191              -1901.74      1.35      0.28
  193              -1431.27      1.02      0.17
  195                613.52      1.74      1.03
  197                537.90      1.53      0.80
  199                -77.02      0.22      0.02
  201               -614.91      1.74      1.03
  202                543.74      3.47      5.91
  203                233.07      1.49      1.23
  204                543.74      1.54      0.82
  205                344.01      0.98      0.35
  207                310.09      0.88      0.29
  209                158.33      1.01      0.60
  211                601.77      1.71      0.99
  213                185.69      0.53      0.11
  215                149.99      0.43      0.08
  217               -239.40      0.68      0.18
  219               -247.40      0.70      0.19
  221                247.40      1.58      1.37
  223                 52.76      0.15      0.01
  225                 74.91      0.21      0.02
  229               4695.19      3.33      1.31
  231               4420.90      3.14      1.17
  233               4385.10      3.11      1.34
  235                119.18      0.34      0.05
  237                466.51      1.32      0.62
  238                465.55      1.32      0.62
  239                 89.24      0.25      0.03
  240                465.55      1.32      0.62
  241                465.55      1.32      0.62
  243                464.41      0.74      0.15
  245                302.84      0.48      0.07
  247                234.69      0.37      0.04
  249                114.84      0.18      0.01
  251                 53.72      0.11      0.01
  257                 29.64      0.08      0.00
  261                 50.03      0.32      0.07
  263                 21.42      0.06      0.00
  269                150.30      0.43      0.08
  271                 54.83      0.35      0.08
  273                 75.18      0.21      0.02
  275                 10.00      0.03      0.00
  277                  5.64      0.02      0.00
  281                  4.36      0.02      0.00
  283                  7.19      0.02      0.00
  285                -18.63      0.05      0.00
  287                -68.50      0.28      0.04
  289                234.74      0.96      0.42
  291                 70.88      0.29      0.05
  293                 42.85      0.27      0.05
  295                -11.44      0.03      0.00
  297                481.00      3.07      4.71
  299                231.09      1.48      1.21
  301                231.09      1.48      1.21
  303                249.91      1.60      1.40
  305                145.89      0.41      0.07
  307                395.80      1.12      0.46
  309                203.82      1.30      0.96
  311                -53.83      0.15      0.01
  313                458.73      1.30      0.60
  315              -2044.79      1.45      0.33
  317                111.44      0.71      0.31
  319                  7.74      0.02      0.00
  321               7472.59      3.39      1.04
  323                -22.20      0.06      0.00
  325                143.05      0.91      0.50
  329              13143.18      5.97      3.00
  330                  0.00      0.00      0.00
  333                 -0.00      0.00      0.00
  10                   0.00      0.00      0.00  Pump
  335              13143.18      0.00    -93.57  Pump
   
   
  Node Results at 0:20:00 hrs:
  --------------------------------------------------------
                     Demand      Head  Pressure  Chemical
  Node                  gpm        ft       psi      mg/L
  --------------------------------------------------------
  10                   0.00    146.42     -0.25      0.00
  15                 637.43    124.78     40.20      0.00
  20                   0.00    158.30     12.69      0.00
  35                1431.27    146.55     58.08      0.00
  40                   0.00    145.29      5.80      0.00
  50                   0.00    139.66     10.04      0.00
  60                   0.00    209.04     90.58      0.00
  601                  0.00    302.63    131.13      0.00
  61                   0.00    302.63    131.13      0.00
  101                246.94    146.42     45.25      0.00
  103                173.16    146.39     44.80      0.00
  105                175.98    147.69     51.64      0.00
  107                 71.03    147.68     54.46      0.00
  109                300.82    146.39     54.63      0.00
  111                184.52    146.95     59.34      0.00
  113                 26.01    146.98     62.82      0.00
  115                 67.73    147.76     57.96      0.00
  117                153.02    150.81     59.45      0.00
  119                228.97    158.13     67.65      0.00
  120                  0.00    155.76     67.49      0.00
  121                 54.12    161.52     70.85      0.00
  123                  0.00    165.96     67.15      0.00
  125                 59.28    160.90     64.95      0.00
  127                 22.96    159.10     44.67      0.00
  129                  0.00    159.08     46.83      0.00
  131                 55.58    159.07     66.32      0.00
  139                  7.66    153.33     53.01      0.00
  141                 12.81    149.23     62.93      0.00
  143                  8.06    137.87     61.69      0.00
  145                 35.92    150.54     64.80      0.00
  147                 11.12    151.53     57.64      0.00
  149                 35.19    151.94     58.90      0.00
  151                187.82    155.97     53.07      0.00
  153                 57.42    156.07     38.94      0.00
  157                 67.33    155.73     61.80      0.00
  159                 53.72    152.44     63.45      0.00
  161                 20.54    150.21     63.35      0.00
  163                 12.25    149.76     62.72      0.00
  164                  0.00    149.76     62.72      0.00
  166                  3.38    149.76     65.76      0.00
  167                 18.93    147.92     66.26      0.00
  169                  0.00    147.92     66.26      0.00
  171                 51.14    146.85     65.36      0.00
  173                  0.00    146.83     65.36      0.00
  177                 75.62    146.52     60.02      0.00
  179                  0.00    146.50     60.01      0.00
  181                  0.00    146.55     60.04      0.00
  183                  0.00    146.50     58.71      0.00
  184                  0.00    145.28     56.02      0.00
  185                 33.34    145.87     56.27      0.00
  187                  0.00    146.59     58.10      0.00
  189                140.30    146.89     61.92      0.00
  191                106.47    146.88     52.81      0.00
  193                 92.70    146.97     55.88      0.00
  195                  0.00    147.04     57.00      0.00
  197                 22.15    146.89     53.68      0.00
  199                155.12    141.59     62.22      0.00
  201                 57.99    140.85     60.99      0.00
  203               4385.10    140.69     60.09      0.00
  204                  0.00    146.34     54.31      0.00
  205                 84.97    141.55     52.23      0.00
  206                  0.00    140.51     60.45      0.00
  207                 90.21    140.80     57.11      0.00
  208                  0.00    140.19     53.81      0.00
  209                  1.13    139.62     61.37      0.00
  211                 11.27    139.44     57.38      0.00
  213                 18.12    139.37     57.35      0.00
  215                119.85    139.18     57.28      0.00
  217                 31.49    139.17     57.70      0.00
  219                 53.72    139.15     58.56      0.00
  225                 29.64    139.16     56.83      0.00
  229                 83.43    139.20     55.77      0.00
  231                 21.42    139.20     58.15      0.00
  237                 20.29    139.26     54.28      0.00
  239                 57.99    139.25     54.70      0.00
  241                  0.00    139.25     54.70      0.00
  243                  5.64    139.25     54.27      0.00
  247                 91.49    139.25     52.54      0.00
  249                  0.00    139.25     52.54      0.00
  251                 31.41    139.25     47.34      0.00
  253                 70.88    139.25     44.74      0.00
  255                 52.51    139.30     48.66      0.00
  257                  0.00    152.72     58.81      0.00
  259                  0.00    152.30     55.16      0.00
  261                  0.00    150.76     65.32      0.00
  263                  0.00    150.60     65.25      0.00
  265                  0.00    148.50     64.35      0.00
  267                  0.00    146.99     54.59      0.00
  269                  0.00    147.28     63.82      0.00
  271                  0.00    146.64     60.94      0.00
  273                  0.00    141.55     57.87      0.00
  275                  0.00    140.85     56.70      0.00
  River           -13141.15    220.00      0.00      0.00  Reservoir
  Lake                 0.00    167.00      0.00      0.00  Reservoir
  1                  609.39    145.29      5.80      0.00  Tank
  2                 -225.40    139.66     10.04      0.00  Tank
  3                 2340.83    158.30     12.69      0.00  Tank
   
   
  Link Results at 0:20:00 hrs:
  ----------------------------------------------
                       Flow  Velocity  Headloss
  Link                  gpm       fps   /1000ft
  ----------------------------------------------
  20               -2340.83      0.10      0.00
  40                -609.39      0.03      0.00
  50                 225.40      0.01      0.00
  60               13141.15      9.32      8.91
  101                  0.00      0.00      0.00
  103                169.01      0.27      0.02
  105               -415.95      1.18      0.50
  107                 35.16      0.10      0.01
  109                 -4.15      0.01      0.00
  111               -304.97      0.87      0.28
  112                496.82      1.41      0.69
  113                -67.77      0.19      0.02
  114                124.93      0.80      0.39
  115                -35.87      0.23      0.04
  116                 31.15      0.09      0.00
  117                627.09      1.78      1.07
  119               -725.35      2.06      1.40
  120               1141.66      3.24      3.24
  121               1024.31      2.91      2.65
  122                363.80      2.32      2.81
  123               9719.35      4.41      1.70
  125              13141.15      5.96      2.96
  129               3003.89      2.13      0.66
  131               2729.76      1.94      0.56
  133              -2340.83      2.39      1.02
  135                365.98      0.26      0.01
  137                 55.58      0.09      0.00
  145                310.40      1.98      2.09
  147                302.75      1.93      2.00
  149               -645.49      4.12      8.12
  151               -637.43      4.07      7.93
  153                355.55      1.01      0.37
  155                391.47      1.11      0.45
  159               -402.58      1.14      0.47
  161               -437.77      2.79      3.96
  163               -157.43      0.45      0.08
  169                214.85      1.37      1.06
  171                468.17      1.33      0.62
  173               7880.54      3.58      1.15
  175               7813.22      3.55      1.13
  177               7759.50      3.52      1.12
  179               7491.52      3.40      1.05
  180                  3.38      0.01      0.00
  181                  3.38      0.01      0.00
  183               7272.09      3.30      0.99
  185                -18.93      0.12      0.01
  186                344.52      2.20      2.54
  187               6651.53      3.02      0.84
  189               4703.38      2.13      0.44
  191              -1897.01      1.35      0.28
  193              -1431.27      1.02      0.17
  195                608.83      1.73      1.01
  197                533.21      1.51      0.79
  199                -76.18      0.22      0.02
  201               -609.39      1.73      1.01
  202                544.89      3.48      5.93
  203                233.71      1.49      1.24
  204                544.89      1.55      0.82
  205                344.52      0.98      0.35
  207                309.88      0.88      0.29
  209                158.52      1.01      0.60
  211                601.63      1.71      0.99
  213                186.00      0.53      0.11
  215                150.16      0.43      0.08
  217               -239.52      0.68      0.18
  219               -247.44      0.70      0.19
  221                247.44      1.58      1.38
  223                 52.94      0.15      0.01
  225                 75.10      0.21      0.02
  229               4703.38      3.34      1.31
  231               4427.57      3.14      1.17
  233               4385.10      3.11      1.34
  235                120.70      0.34      0.05
  237                469.05      1.33      0.62
  238                474.88      1.35      0.64
  239                 96.04      0.27      0.03
  240                474.88      1.35      0.64
  241                474.88      1.35      0.64
  243                473.75      0.76      0.16
  245                304.60      0.49      0.07
  247                234.69      0.37      0.04
  249                114.84      0.18      0.01
  251                 53.72      0.11      0.01
  257                 29.64      0.08      0.00
  261                 51.79      0.33      0.08
  263                 21.42      0.06      0.00
  269                157.88      0.45      0.08
  271                 53.07      0.34      0.08
  273                 84.52      0.24      0.03
  275                 13.46      0.04      0.00
  277                  5.64      0.02      0.00
  281                  7.81      0.03      0.00
  283                 13.07      0.04      0.00
  285                -21.00      0.06      0.00
  287                -62.68      0.26      0.04
  289                225.40      0.92      0.39
  291                 70.88      0.29      0.05
  293                 39.34      0.25      0.05
  295                 -7.93      0.02      0.00
  297                481.15      3.07      4.71
  299                231.16      1.48      1.21
  301                231.16      1.48      1.21
  303                249.99      1.60      1.40
  305                145.94      0.41      0.07
  307                395.93      1.12      0.46
  309                203.80      1.30      0.96
  311                -53.64      0.15      0.01
  313                458.54      1.30      0.60
  315              -2040.10      1.45      0.32
  317                111.57      0.71      0.31
  319                  9.13      0.03      0.00
  321               7475.89      3.39      1.04
  323                -15.53      0.04      0.00
  325                143.09      0.91      0.50
  329              13141.15      5.96      3.00
  330                  0.00      0.00      0.00
  333                 -0.00      0.00      0.00
  10                   0.00      0.00      0.00  Pump
  335              13141.15      0.00    -93.59  Pump
   
   
  Node Results at 0:25:00 hrs:
  --------------------------------------------------------
                     Demand      Head  Pressure  Chemical
  Node                  gpm        ft       psi      mg/L
  --------------------------------------------------------
  10                   0.00    146.47     -0.23      0.00
  15                 637.43    124.84     40.23      0.00
  20                   0.00    158.37     12.73      0.00
  35                1431.27    146.60     58.11      0.00
  40                   0.00    145.37      5.83      0.00
  50                   0.00    139.58     10.00      0.00
  60                   0.00    209.04     90.58      0.00
  601                  0.00    302.65    131.14      0.00
  61                   0.00    302.65    131.14      0.00
  101                246.94    146.47     45.27      0.00
  103                173.16    146.44     44.82      0.00
  105                175.98    147.74     51.67      0.00
  107                 71.03    147.74     54.48      0.00
  109                300.82    146.44     54.66      0.00
  111                184.52    147.00     59.36      0.00
  113                 26.01    147.03     62.84      0.00
  115                 67.73    147.81     57.98      0.00
  117                153.02    150.86     59.47      0.00
  119                228.97    158.18     67.67      0.00
  120                  0.00    155.82     67.52      0.00
  121                 54.12    161.58     70.88      0.00
  123                  0.00    166.02     67.17      0.00
  125                 59.28    160.96     64.98      0.00
  127                 22.96    159.17     44.70      0.00
  129                  0.00    159.15     46.86      0.00
  131                 55.58    159.14     66.35      0.00
  139                  7.66    153.40     53.03      0.00
  141                 12.81    149.30     62.96      0.00
  143                  8.06    137.93     61.71      0.00
  145                 35.92    150.61     64.82      0.00
  147                 11.12    151.59     57.67      0.00
  149                 35.19    152.00     58.93      0.00
  151                187.82    156.04     53.09      0.00
  153                 57.42    156.13     38.97      0.00
  157                 67.33    155.79     61.83      0.00
  159                 53.72    152.50     63.48      0.00
  161                 20.54    150.26     63.37      0.00
  163                 12.25    149.81     62.75      0.00
  164                  0.00    149.81     62.75      0.00
  166                  3.38    149.81     65.78      0.00
  167                 18.93    147.97     66.28      0.00
  169                  0.00    147.97     66.28      0.00
  171                 51.14    146.90     65.39      0.00
  173                  0.00    146.88     65.38      0.00
  177                 75.62    146.57     60.04      0.00
  179                  0.00    146.55     60.03      0.00
  181                  0.00    146.60     60.06      0.00
  183                  0.00    146.56     58.74      0.00
  184                  0.00    145.33     56.04      0.00
  185                 33.34    145.92     56.30      0.00
  187                  0.00    146.64     58.12      0.00
  189                140.30    146.95     61.94      0.00
  191                106.47    146.93     52.83      0.00
  193                 92.70    147.03     55.91      0.00
  195                  0.00    147.09     57.02      0.00
  197                 22.15    146.95     53.71      0.00
  199                155.12    141.62     62.23      0.00
  201                 57.99    140.88     61.00      0.00
  203               4385.10    140.72     60.11      0.00
  204                  0.00    146.39     54.33      0.00
  205                 84.97    141.58     52.25      0.00
  206                  0.00    140.53     60.46      0.00
  207                 90.21    140.83     57.12      0.00
  208                  0.00    140.19     53.81      0.00
[...]
  219                 66.53    138.57     58.31      0.00
  225                 36.71    138.58     56.58      0.00
  229                103.33    138.73     55.56     41.19
  231                 26.53    138.73     57.94      0.00
  237                 25.13    138.87     54.10     11.43
  239                 71.82    138.86     54.54     43.67
  241                  0.00    138.86     54.54      0.00
  243                  6.99    138.86     54.10      0.00
  247                113.31    138.87     52.37      0.00
  249                  0.00    138.87     52.37      0.00
  251                 38.90    138.88     47.18      0.00
  253                 87.78    138.98     44.62      0.00
  255                 65.03    139.06     48.55      0.00
  257                  0.00    151.31     58.20      0.00
  259                  0.00    150.88     54.54      0.00
  261                  0.00    149.30     64.69      0.00
  263                  0.00    149.13     64.62      0.00
  265                  0.00    148.19     64.21      0.00
  267                  0.00    146.52     54.39      0.00
  269                  0.00    147.00     63.70      0.00
  271                  0.00    146.61     60.93      0.00
  273                  0.00    141.31     57.76      0.00
  275                  0.00    140.63     56.60      0.00
  River           -13226.47    220.00      0.00      0.00  Reservoir
  Lake                 0.00    167.00      0.00      0.00  Reservoir
  1                 -568.73    147.64      6.82      0.00  Tank
  2                 -359.00    139.91     10.14      0.00  Tank
  3                 1046.08    159.13     13.05      0.00  Tank
   
   
  Link Results at 23:55:00 hrs:
  ----------------------------------------------
                       Flow  Velocity  Headloss
  Link                  gpm       fps   /1000ft
  ----------------------------------------------
  20               -1046.08      0.04      0.00
  40                 568.73      0.02      0.00
  50                 359.00      0.01      0.00
  60               13226.47      9.38      9.01
  101                  0.00      0.00      0.00
  103                126.04      0.20      0.01
  105               -431.86      1.23      0.54
  107                 -7.39      0.02      0.00
  109                -88.41      0.14      0.01
  111               -460.97      1.31      0.60
  112                424.44      1.20      0.52
  113               -181.92      0.52      0.11
  114                 89.69      0.57      0.21
  115                -95.36      0.61      0.24
  116               -124.44      0.35      0.05
  117                642.41      1.82      1.12
  119               -693.37      1.97      1.29
  120               1167.10      3.31      3.37
  121               1037.58      2.94      2.71
  122                358.20      2.29      2.73
  123               9307.09      4.22      1.56
  125              11386.67      5.17      2.27
  129               1654.37      1.17      0.22
  131               1381.66      0.98      0.16
  133              -1046.08      1.07      0.23
  135                307.15      0.22      0.01
  137                 68.83      0.11      0.00
  145                238.33      1.52      1.28
  147                228.84      1.46      1.19
  149               -369.48      2.36      2.89
  151               -359.50      2.29      2.75
  153                156.50      0.44      0.08
  155                200.98      0.57      0.13
  159               -214.75      0.61      0.15
  161               -258.33      1.65      1.49
  163               -128.17      0.36      0.06
  169                199.28      1.27      0.92
  171                362.77      1.03      0.39
  173               7493.64      3.40      1.05
  175               7410.26      3.36      1.03
  177               7343.74      3.33      1.01
  179               7060.31      3.20      0.94
  180                  4.19      0.01      0.00
  181                  4.19      0.01      0.00
  183               6826.48      3.10      0.88
  185                -23.44      0.15      0.02
  186                279.83      1.79      1.73
  187               6190.09      2.81      0.74
  189               4750.84      2.16      0.45
  191              -1375.91      0.98      0.16
  193              -1701.22      1.21      0.23
  195               -215.91      0.61      0.15
  197               -309.56      0.88      0.29
  199                259.17      0.74      0.21
  201                568.73      1.61      0.89
  202                538.46      3.44      5.80
  203                299.92      1.91      1.96
  204                538.46      1.53      0.81
  205                279.83      0.79      0.24
  207                 40.76      0.12      0.01
  209                212.92      1.36      1.04
  211                612.95      1.74      1.02
  213                 66.92      0.19      0.02
  215                -76.13      0.22      0.02
  217               -309.35      0.88      0.29
  219               -257.99      0.73      0.21
  221                257.99      1.65      1.49
  223               -110.57      0.31      0.04
  225                -83.14      0.24      0.03
  229               4750.84      3.37      1.34
  231               4405.94      3.12      1.16
  233               4300.15      3.05      1.29
  235                152.79      0.43      0.08
  237                476.61      1.35      0.64
  238                508.27      1.44      0.72
  239                143.38      0.41      0.07
  240                508.27      1.44      0.72
  241                508.27      1.44      0.72
  243                506.87      0.81      0.18
  245                363.35      0.58      0.10
  247                290.65      0.46      0.06
  249                142.23      0.23      0.02
  251                 66.53      0.14      0.01
  257                 36.71      0.10      0.01
  261                 50.25      0.32      0.07
  263                 26.53      0.08      0.00
  269                129.56      0.37      0.06
  271                 79.61      0.51      0.17
  273                 24.82      0.07      0.00
  275                -13.31      0.04      0.00
  277                  6.99      0.02      0.00
  281                -20.30      0.08      0.00
  283                -33.69      0.10      0.00
  285                 -5.86      0.02      0.00
  287               -127.75      0.52      0.14
  289                359.00      1.47      0.92
  291                 87.78      0.36      0.07
  293                 78.45      0.50      0.16
  295                -39.55      0.11      0.01
  297                487.72      3.11      4.83
  299                234.48      1.50      1.24
  301                234.48      1.50      1.24
  303                253.24      1.62      1.44
  305                154.69      0.44      0.08
  307                407.94      1.16      0.48
  309                214.48      1.37      1.06
  311               -290.61      0.82      0.26
  313                503.55      1.43      0.71
  315              -1485.31      1.05      0.18
  317                109.41      0.70      0.30
  319                 43.38      0.12      0.01
  321               7040.95      3.20      0.93
  323                 33.97      0.10      0.00
  325                109.40      0.70      0.30
  329              13226.47      6.00      3.04
  330                  0.00      0.00      0.00
  333                 -0.00      0.00      0.00
  10                   0.00      0.00      0.00  Pump
  335              13226.47      0.00    -92.84  Pump
   
   
  Node Results at 24:00:00 hrs:
  --------------------------------------------------------
                     Demand      Head  Pressure  Chemical
  Node                  gpm        ft       psi      mg/L
  --------------------------------------------------------
  10                   0.00    147.86      0.37      0.00
  15                 637.43    125.84     40.66      0.00
  20                   0.00    159.16     13.07      0.00
  35                1431.27    148.08     58.75      0.00
  40                   0.00    147.57      6.79      0.00
  50                   0.00    139.79     10.09      0.00
  60                   0.00    209.09     90.60      0.00
  601                  0.00    303.00    131.29      0.00
  61                   0.00    303.00    131.29      0.00
  101                246.94    147.86     45.87      0.00
  103                173.16    147.83     45.42      0.00
  105                175.98    149.10     52.25      0.00
  107                 71.03    149.09     55.07      0.00
  109                300.82    147.83     55.26      0.00
  111                184.52    148.40     59.97      0.00
  113                 26.01    148.44     63.45      0.00
  115                 67.73    149.18     58.57      0.00
  117                153.02    152.14     60.03      0.00
  119                228.97    159.29     68.16      0.00
  120                  0.00    156.98     68.02      0.00
  121                 54.12    162.60     71.32      0.00
  123                  0.00    167.03     67.61      0.00
  125                 59.28    161.95     65.41      0.00
  127                 22.96    160.02     45.07      0.00
  129                  0.00    160.01     47.23      0.00
  131                 55.58    159.99     66.72      0.00
  139                  7.66    154.33     53.44      0.00
  141                 12.81    150.30     63.39      0.00
  143                  8.06    138.93     62.15      0.00
  145                 35.92    151.62     65.26      0.00
  147                 11.12    152.62     58.11      0.00
  149                 35.19    153.03     59.38      0.00
  151                187.82    157.11     53.56      0.00
  153                 57.42    157.20     39.43      0.00
  157                 67.33    156.97     62.34      0.00
  159                 53.72    153.77     64.03      0.00
  161                 20.54    151.60     63.95      0.00
  163                 12.25    151.16     63.33      0.00
  164                  0.00    151.16     63.33      0.00
  166                  3.38    151.16     66.36      0.00
  167                 18.93    149.37     66.89      0.00
  169                  0.00    149.38     66.89      0.00
  171                 51.14    148.34     66.01      0.00
  173                  0.00    148.32     66.00      0.00
  177                 75.62    148.07     60.69      0.00
  179                  0.00    148.06     60.69      0.00
  181                  0.00    148.09     60.70      0.00
  183                  0.00    148.06     59.39      0.00
  184                  0.00    146.74     56.65      0.00
  185                 33.34    147.36     56.92      0.00
  187                  0.00    148.07     58.74      0.00
  189                140.30    148.39     62.56      0.00
  191                106.47    148.34     53.45      0.00
  193                 92.70    148.44     56.52      0.00
  195                  0.00    148.51     57.63      0.00
  197                 22.15    148.35     54.32      0.00
  199                155.12    142.90     62.78      0.00
  201                 57.99    142.14     61.55      0.00
  203               4385.10    141.98     60.65      0.00
  204                  0.00    147.82     54.95      0.00
  205                 84.97    142.85     52.80      0.00
  206                  0.00    141.60     60.92      0.00
  207                 90.21    142.01     57.63      0.00
  208                  0.00    141.15     54.23      0.00
  209                  1.13    140.35     61.68      0.00
  211                 11.27    140.08     57.66      0.00
  213                 18.12    140.01     57.63      0.00
  215                119.85    139.82     57.55      0.00
  217                 31.49    139.80     57.98     69.88
  219                 53.72    139.79     58.84      0.00
  225                 29.64    139.80     57.11      0.00
  229                 83.43    139.70     55.98     40.32
  231                 21.42    139.69     58.36      0.00
  237                 20.29    139.72     54.48     11.07
  239                 57.99    139.67     54.89     44.90
  241                  0.00    139.67     54.89      0.00
  243                  5.64    139.67     54.45      0.00
  247                 91.49    139.66     52.72      0.00
  249                  0.00    139.66     52.72      0.00
  251                 31.41    139.66     47.51      0.00
  253                 70.88    139.61     44.89      0.00
  255                 52.51    139.66     48.82      0.00
  257                  0.00    154.01     59.37      0.00
  259                  0.00    153.60     55.72      0.00
  261                  0.00    152.10     65.90      0.00
  263                  0.00    151.94     65.84      0.00
  265                  0.00    149.94     64.97      0.00
  267                  0.00    148.46     55.23      0.00
  269                  0.00    148.76     64.46      0.00
  271                  0.00    148.16     61.60      0.00
  273                  0.00    142.85     58.43      0.00
  275                  0.00    142.14     57.25      0.00
  River           -13105.19    220.00      0.00      0.00  Reservoir
  Lake                 0.00    167.00      0.00      0.00  Reservoir
  1                  375.22    147.57      6.79      0.00  Tank
  2                 -128.69    139.79     10.09      0.00  Tank
  3                 2442.31    159.16     13.07      0.00  Tank
   
   
  Link Results at 24:00:00 hrs:
  ----------------------------------------------
                       Flow  Velocity  Headloss
  Link                  gpm       fps   /1000ft
  ----------------------------------------------
  20               -2442.31      0.10      0.00
  40                -375.22      0.02      0.00
  50                 128.69      0.01      0.00
  60               13105.19      9.29      8.86
  101                  0.00      0.00      0.00
  103                164.28      0.26      0.02
  105               -411.21      1.17      0.49
  107                 32.11      0.09      0.00
  109                 -8.88      0.01      0.00
  111               -309.70      0.88      0.29
  112                486.25      1.38      0.67
  113                -76.83      0.22      0.02
  114                121.50      0.78      0.37
  115                -38.92      0.25      0.04
  116                 18.66      0.05      0.00
  117                619.30      1.76      1.04
  119               -714.40      2.03      1.36
  120               1127.60      3.20      3.17
  121               1011.56      2.87      2.59
  122                359.12      2.29      2.74
  123               9590.84      4.35      1.65
  125              13105.19      5.95      2.95
  129               3101.11      2.20      0.70
  131               2828.94      2.01      0.59
  133              -2442.31      2.49      1.10
  135                363.67      0.26      0.01
  137                 55.58      0.09      0.00
  145                308.10      1.97      2.06
  147                300.44      1.92      1.97
  149               -645.49      4.12      8.12
  151               -637.43      4.07      7.93
  153                357.85      1.02      0.38
  155                393.77      1.12      0.45
  159               -404.89      1.15      0.47
  161               -440.08      2.81      3.99
  163               -155.46      0.44      0.08
  169                212.88      1.36      1.04
  171                472.44      1.34      0.63
  173               7761.83      3.52      1.12
  175               7694.50      3.49      1.10
  177               7640.78      3.47      1.09
  179               7375.87      3.35      1.02
  180                  3.38      0.01      0.00
  181                  3.38      0.01      0.00
  183               7158.91      3.25      0.96
  185                -18.93      0.12      0.01
  186                342.75      2.19      2.51
  187               6551.28      2.97      0.82
  189               4787.35      2.17      0.46
  191              -1712.79      1.21      0.23
  193              -1431.27      1.02      0.17
  195                419.54      1.19      0.51
  197                343.92      0.98      0.35
  199                -31.30      0.09      0.00
  201               -375.22      1.06      0.41
  202                557.63      3.56      6.19
  203                248.23      1.58      1.38
  204                557.63      1.58      0.86
  205                342.75      0.97      0.35
  207                279.53      0.79      0.24
  209                162.30      1.04      0.63
  211                588.70      1.67      0.95
  213                180.45      0.51      0.11
  215                131.45      0.37      0.06
  217               -240.21      0.68      0.18
  219               -244.37      0.69      0.19
  221                244.37      1.56      1.34
  223                 46.70      0.13      0.01
  225                 68.85      0.20      0.02
  229               4787.35      3.40      1.35
  231               4493.46      3.19      1.20
  233               4385.10      3.11      1.34
  235                138.77      0.39      0.07
  237                498.75      1.41      0.70
  238                571.59      1.62      0.90
  239                163.05      0.46      0.09
  240                571.59      1.62      0.90
  241                571.59      1.62      0.90
  243                570.46      0.91      0.22
  245                324.83      0.52      0.08
  247                234.69      0.37      0.04
  249                114.84      0.18      0.01
  251                 53.72      0.11      0.01
  257                 29.64      0.08      0.00
  261                 72.02      0.46      0.14
  263                 21.42      0.06      0.00
  269                234.36      0.66      0.17
  271                 32.83      0.21      0.03
  273                181.23      0.51      0.11
  275                 49.68      0.14      0.01
  277                  5.64      0.02      0.00
  281                 44.03      0.18      0.02
  283                 73.56      0.21      0.02
  285                -50.82      0.14      0.01
  287                  3.36      0.01      0.00
  289                128.69      0.53      0.14
  291                 70.88      0.29      0.05
  293                  8.67      0.06      0.00
  295                 22.74      0.06      0.00
  297                475.17      3.03      4.60
  299                228.29      1.46      1.18
  301                228.29      1.46      1.18
  303                246.88      1.58      1.37
  305                144.14      0.41      0.07
  307                391.01      1.11      0.45
  309                201.33      1.29      0.94
  311                -69.89      0.20      0.02
  313                450.68      1.28      0.58
  315              -1850.81      1.31      0.27
  317                112.68      0.72      0.32
  319                 26.09      0.07      0.00
  321               7360.25      3.34      1.01
  323                 50.37      0.14      0.01
  325                138.02      0.88      0.47
  329              13105.19      5.95      2.99
  330                  0.00      0.00      0.00
  333                 -0.00      0.00      0.00
  10                   0.00      0.00      0.00  Pump
  335              13105.19      0.00    -93.91  Pump
   
  Analysis ended Wed May 06 17:23:03 2020
