  Page 1                                    Wed May 06 17:24:01 2020

  ******************************************************************
  *                           E P A N E T                          *
  *                   Hydraulic and Water Quality                  *
  *                   Analysis for Pipe Networks                   *
  *                         Version 2.00.12                        *
  ******************************************************************
  
  Analysis begun Wed May 06 17:24:01 2020

   
  Hydraulic Status:
  -----------------------------------------------------------------------
     0:00:00: Balanced after 5 trials
     0:00:00: Reservoir River is emptying
     0:00:00: Reservoir Lake is closed
     0:00:00: Tank 1 is filling at 13.10 ft
     0:00:00: Tank 2 is emptying at 23.50 ft
     0:00:00: Tank 3 is filling at 29.00 ft
   
     0:05:00: Balanced after 2 trials
   
     0:10:00: Balanced after 2 trials
   
     0:15:00: Balanced after 2 trials
   
     0:20:00: Balanced after 2 trials
   
     0:25:00: Balanced after 2 trials
   
     0:30:00: Balanced after 2 trials
   
     0:35:00: Balanced after 2 trials
   
     0:40:00: Balanced after 2 trials
   
     0:45:00: Balanced after 2 trials
   
     0:50:00: Balanced after 2 trials
   
     0:55:00: Balanced after 2 trials
   
     1:00:00: Pump 10 changed by timer control
     1:00:00: Balanced after 7 trials
     1:00:00: Reservoir Lake is emptying
     1:00:00: Pump 10 changed from closed to open
   
     1:05:00: Balanced after 2 trials
   
     1:10:00: Balanced after 2 trials
   
     1:15:00: Balanced after 2 trials
   
     1:20:00: Balanced after 2 trials
   
     1:25:00: Balanced after 2 trials
   
     1:30:00: Balanced after 2 trials
   
     1:35:00: Balanced after 2 trials
   
     1:40:00: Balanced after 2 trials
   
     1:45:00: Balanced after 2 trials
   
     1:50:00: Balanced after 2 trials
   
     1:55:00: Balanced after 2 trials
   
     2:00:00: Balanced after 4 trials
     2:00:00: Tank 2 is filling at 20.52 ft
   
     2:05:00: Balanced after 1 trials
   
     2:10:00: Balanced after 1 trials
   
     2:15:00: Balanced after 1 trials
   
     2:20:00: Balanced after 1 trials
   
     2:25:00: Balanced after 1 trials
   
     2:30:00: Balanced after 1 trials
   
     2:35:00: Balanced after 1 trials
   
     2:40:00: Balanced after 1 trials
   
     2:45:00: Balanced after 1 trials
   
     2:50:00: Balanced after 1 trials
   
     2:55:00: Balanced after 1 trials
   
     3:00:00: Balanced after 3 trials
   
     3:05:00: Balanced after 1 trials
   
     3:10:00: Balanced after 1 trials
   
     3:15:00: Balanced after 1 trials
   
     3:20:00: Balanced after 1 trials
   
     3:25:00: Balanced after 1 trials
   
     3:30:00: Balanced after 1 trials
   
     3:35:00: Balanced after 1 trials
   
     3:40:00: Balanced after 1 trials
   
     3:45:00: Balanced after 1 trials
   
     3:50:00: Balanced after 1 trials
   
     3:55:00: Balanced after 1 trials
   
     4:00:00: Balanced after 3 trials
   
     4:05:00: Balanced after 1 trials
   
     4:10:00: Balanced after 1 trials
   
     4:15:00: Balanced after 1 trials
   
     4:20:00: Balanced after 1 trials
   
     4:25:00: Balanced after 1 trials
   
     4:30:00: Balanced after 1 trials
   
     4:31:13: Pump 335 changed by Tank 1 control
     4:31:13: Pipe 330 changed by Tank 1 control
     4:31:13: Balanced after 4 trials
     4:31:13: Pipe 330 changed from closed to open
     4:31:13: Pump 335 changed from open to closed
   
     4:35:00: Balanced after 1 trials
   
     4:40:00: Balanced after 2 trials
   
     4:45:00: Balanced after 2 trials
   
     4:50:00: Balanced after 2 trials
   
     4:55:00: Balanced after 2 trials
   
     5:00:00: Balanced after 3 trials
     5:00:00: Tank 3 is emptying at 34.49 ft
   
     5:05:00: Balanced after 2 trials
   
     5:10:00: Balanced after 2 trials
   
     5:15:00: Balanced after 2 trials
   
     5:20:00: Balanced after 2 trials
   
     5:25:00: Balanced after 2 trials
   
     5:30:00: Balanced after 2 trials
   
     5:35:00: Balanced after 2 trials
   
     5:40:00: Balanced after 2 trials
   
     5:45:00: Balanced after 2 trials
   
     5:50:00: Balanced after 2 trials
     5:50:00: Tank 3 is filling at 34.46 ft
   
     5:55:00: Balanced after 2 trials
   
     6:00:00: Balanced after 3 trials
   
     6:05:00: Balanced after 2 trials
   
     6:10:00: Balanced after 2 trials
   
     6:15:00: Balanced after 2 trials
   
     6:20:00: Balanced after 2 trials
   
     6:25:00: Balanced after 2 trials
   
     6:30:00: Balanced after 2 trials
   
     6:35:00: Balanced after 2 trials
   
     6:40:00: Balanced after 2 trials
   
     6:45:00: Balanced after 2 trials
   
     6:50:00: Balanced after 2 trials
   
     6:55:00: Balanced after 2 trials
   
     7:00:00: Balanced after 4 trials
   
     7:05:00: Balanced after 1 trials
   
     7:10:00: Balanced after 1 trials
   
     7:15:00: Balanced after 1 trials
   
     7:20:00: Balanced after 1 trials
   
     7:25:00: Balanced after 1 trials
   
     7:30:00: Balanced after 1 trials
   
     7:35:00: Balanced after 1 trials
   
     7:40:00: Balanced after 1 trials
   
     7:45:00: Balanced after 1 trials
   
     7:50:00: Balanced after 1 trials
   
     7:55:00: Balanced after 1 trials
   
     8:00:00: Balanced after 3 trials
   
     8:05:00: Balanced after 1 trials
   
     8:10:00: Balanced after 1 trials
   
     8:15:00: Balanced after 1 trials
   
     8:20:00: Balanced after 1 trials
   
     8:25:00: Balanced after 1 trials
   
     8:30:00: Balanced after 1 trials
   
     8:35:00: Balanced after 1 trials
   
     8:40:00: Balanced after 1 trials
   
     8:45:00: Balanced after 1 trials
   
     8:50:00: Balanced after 1 trials
   
     8:55:00: Balanced after 1 trials
   
     8:58:52: Balanced after 4 trials
     8:58:52: Tank 3 is closed at 35.50 ft
     8:58:52: Pipe 20 changed from open to temporarily closed
   
     9:00:00: Balanced after 6 trials
     9:00:00: Tank 1 is emptying at 22.29 ft
     9:00:00: Tank 3 is emptying at 35.50 ft
     9:00:00: Pipe 20 changed from temporarily closed to open
   
     9:05:00: Balanced after 2 trials
   
     9:10:00: Balanced after 2 trials
   
     9:15:00: Balanced after 2 trials
   
     9:20:00: Balanced after 2 trials
   
     9:25:00: Balanced after 2 trials
   
     9:30:00: Balanced after 2 trials
   
     9:35:00: Balanced after 1 trials
   
     9:40:00: Balanced after 1 trials
   
     9:45:00: Balanced after 1 trials
   
     9:50:00: Balanced after 1 trials
   
     9:55:00: Balanced after 1 trials
   
    10:00:00: Balanced after 3 trials
    10:00:00: Tank 1 is filling at 22.25 ft
   
    10:05:00: Balanced after 2 trials
   
    10:10:00: Balanced after 2 trials
   
    10:15:00: Balanced after 2 trials
   
    10:20:00: Balanced after 2 trials
   
    10:25:00: Balanced after 2 trials
   
    10:30:00: Balanced after 2 trials
   
    10:35:00: Balanced after 2 trials
   
    10:40:00: Balanced after 2 trials
   
    10:45:00: Balanced after 2 trials
   
    10:50:00: Balanced after 2 trials
   
    10:55:00: Balanced after 2 trials
   
    11:00:00: Balanced after 3 trials
    11:00:00: Tank 1 is emptying at 22.59 ft
   
    11:05:00: Balanced after 1 trials
   
    11:10:00: Balanced after 1 trials
   
    11:15:00: Balanced after 1 trials
   
    11:20:00: Balanced after 1 trials
   
    11:25:00: Balanced after 1 trials
   
    11:30:00: Balanced after 1 trials
   
    11:35:00: Balanced after 1 trials
   
    11:40:00: Balanced after 1 trials
   
    11:45:00: Balanced after 1 trials
   
    11:50:00: Balanced after 1 trials
   
    11:55:00: Balanced after 1 trials
   
    12:00:00: Balanced after 2 trials
   
    12:05:00: Balanced after 1 trials
   
    12:10:00: Balanced after 1 trials
   
    12:15:00: Balanced after 1 trials
   
    12:20:00: Balanced after 1 trials
   
    12:25:00: Balanced after 1 trials
   
    12:30:00: Balanced after 1 trials
   
    12:35:00: Balanced after 1 trials
   
    12:40:00: Balanced after 1 trials
   
    12:45:00: Balanced after 1 trials
   
    12:50:00: Balanced after 1 trials
   
    12:55:00: Balanced after 1 trials
   
    13:00:00: Balanced after 4 trials
    13:00:00: Tank 2 is emptying at 28.43 ft
   
    13:05:00: Balanced after 1 trials
   
    13:10:00: Balanced after 1 trials
   
    13:15:00: Balanced after 1 trials
   
    13:20:00: Balanced after 1 trials
   
    13:25:00: Balanced after 1 trials
   
    13:30:00: Balanced after 1 trials
   
    13:35:00: Balanced after 1 trials
   
    13:40:00: Balanced after 1 trials
   
    13:45:00: Balanced after 1 trials
   
    13:50:00: Balanced after 1 trials
   
    13:55:00: Balanced after 1 trials
   
    14:00:00: Balanced after 4 trials
    14:00:00: Tank 1 is filling at 21.71 ft
    14:00:00: Tank 2 is filling at 27.72 ft
   
    14:05:00: Balanced after 2 trials
   
    14:10:00: Balanced after 2 trials
   
    14:15:00: Balanced after 2 trials
   
    14:20:00: Balanced after 2 trials
   
    14:25:00: Balanced after 2 trials
   
    14:30:00: Balanced after 2 trials
   
    14:35:00: Balanced after 2 trials
    14:35:00: Tank 3 is filling at 33.94 ft
   
    14:40:00: Balanced after 2 trials
   
    14:45:00: Balanced after 2 trials
   
    14:50:00: Balanced after 2 trials
   
    14:55:00: Balanced after 2 trials
   
    15:00:00: Pump 10 changed by timer control
    15:00:00: Balanced after 6 trials
    15:00:00: Reservoir Lake is closed
    15:00:00: Tank 1 is emptying at 22.61 ft
    15:00:00: Tank 3 is emptying at 33.95 ft
    15:00:00: Pump 10 changed from open to closed
   
    15:05:00: Balanced after 2 trials
   
    15:10:00: Balanced after 2 trials
   
    15:15:00: Balanced after 2 trials
   
    15:20:00: Balanced after 2 trials
   
    15:25:00: Balanced after 2 trials
   
    15:30:00: Balanced after 2 trials
   
    15:35:00: Balanced after 2 trials
   
    15:40:00: Balanced after 2 trials
   
    15:45:00: Balanced after 2 trials
   
    15:50:00: Balanced after 2 trials
   
    15:55:00: Balanced after 2 trials
   
    16:00:00: Balanced after 3 trials
   
    16:05:00: Balanced after 2 trials
   
    16:10:00: Balanced after 2 trials
   
    16:15:00: Balanced after 1 trials
   
    16:20:00: Balanced after 1 trials
   
    16:25:00: Balanced after 1 trials
   
    16:30:00: Balanced after 1 trials
   
    16:35:00: Balanced after 1 trials
   
    16:40:00: Balanced after 1 trials
   
    16:45:00: Balanced after 1 trials
   
    16:50:00: Balanced after 1 trials
   
    16:55:00: Balanced after 1 trials
   
    17:00:00: Balanced after 4 trials
    17:00:00: Tank 2 is emptying at 29.59 ft
   
    17:05:00: Balanced after 2 trials
   
    17:10:00: Balanced after 1 trials
   
    17:15:00: Balanced after 1 trials
   
    17:20:00: Balanced after 1 trials
   
    17:25:00: Balanced after 1 trials
   
    17:30:00: Balanced after 1 trials
   
    17:35:00: Balanced after 1 trials
   
    17:40:00: Balanced after 1 trials
   
    17:45:00: Balanced after 1 trials
   
    17:50:00: Balanced after 1 trials
   
    17:55:00: Balanced after 1 trials
   
    18:00:00: Balanced after 3 trials
    18:00:00: Tank 2 is filling at 28.45 ft
   
    18:05:00: Balanced after 2 trials
   
    18:10:00: Balanced after 2 trials
   
    18:15:00: Balanced after 2 trials
   
    18:20:00: Balanced after 2 trials
   
    18:25:00: Balanced after 2 trials
   
    18:30:00: Balanced after 2 trials
   
    18:35:00: Balanced after 2 trials
   
    18:40:00: Balanced after 2 trials
   
    18:45:00: Balanced after 2 trials
   
    18:50:00: Balanced after 2 trials
   
    18:55:00: Balanced after 2 trials
   
    19:00:00: Balanced after 4 trials
    19:00:00: Tank 2 is emptying at 28.84 ft
   
    19:05:00: Balanced after 2 trials
   
    19:10:00: Balanced after 2 trials
   
    19:15:00: Balanced after 2 trials
   
    19:20:00: Balanced after 2 trials
   
    19:25:00: Balanced after 2 trials
   
    19:30:00: Balanced after 2 trials
   
    19:35:00: Balanced after 2 trials
   
    19:40:00: Balanced after 2 trials
   
    19:45:00: Balanced after 2 trials
   
    19:50:00: Balanced after 2 trials
   
    19:55:00: Balanced after 2 trials
   
    20:00:00: Balanced after 3 trials
   
    20:05:00: Balanced after 1 trials
   
    20:10:00: Balanced after 1 trials
   
    20:15:00: Balanced after 1 trials
   
    20:20:00: Balanced after 1 trials
   
    20:25:00: Balanced after 1 trials
   
    20:30:00: Balanced after 1 trials
   
    20:35:00: Balanced after 1 trials
   
    20:40:00: Balanced after 1 trials
   
    20:45:00: Balanced after 1 trials
   
    20:50:00: Balanced after 1 trials
   
    20:55:00: Balanced after 1 trials
   
    21:00:00: Balanced after 3 trials
   
    21:05:00: Balanced after 1 trials
   
    21:10:00: Balanced after 1 trials
   
    21:15:00: Balanced after 1 trials
   
    21:20:00: Balanced after 1 trials
   
    21:25:00: Balanced after 1 trials
   
    21:30:00: Balanced after 1 trials
   
    21:35:00: Balanced after 1 trials
   
    21:40:00: Balanced after 1 trials
   
    21:45:00: Balanced after 1 trials
   
    21:50:00: Balanced after 1 trials
   
    21:55:00: Balanced after 1 trials
   
    22:00:00: Balanced after 3 trials
   
    22:05:00: Balanced after 2 trials
   
    22:06:34: Pump 335 changed by Tank 1 control
    22:06:34: Pipe 330 changed by Tank 1 control
    22:06:34: Balanced after 5 trials
    22:06:34: Tank 3 is filling at 29.66 ft
    22:06:34: Pipe 330 changed from open to closed
    22:06:34: Pump 335 changed from closed to open
   
    22:10:00: Balanced after 2 trials
   
    22:15:00: Balanced after 2 trials
   
    22:20:00: Balanced after 2 trials
   
    22:25:00: Balanced after 2 trials
   
    22:30:00: Balanced after 2 trials
   
    22:35:00: Balanced after 2 trials
   
    22:40:00: Balanced after 2 trials
   
    22:45:00: Balanced after 2 trials
   
    22:50:00: Balanced after 2 trials
   
    22:55:00: Balanced after 2 trials
   
    23:00:00: Balanced after 3 trials
   
    23:05:00: Balanced after 2 trials
   
    23:10:00: Balanced after 2 trials
   
    23:15:00: Balanced after 2 trials
   
    23:20:00: Balanced after 2 trials
   
    23:25:00: Balanced after 2 trials
   
    23:30:00: Balanced after 2 trials
   
    23:35:00: Balanced after 2 trials
   
    23:40:00: Balanced after 2 trials
   
    23:45:00: Balanced after 2 trials
   
    23:50:00: Balanced after 2 trials
   
    23:55:00: Balanced after 2 trials
   
    24:00:00: Balanced after 4 trials
    24:00:00: Tank 1 is filling at 16.12 ft
   
   
  Node Results at 0:00:00 hrs:
  --------------------------------------------------------
                     Demand      Head  Pressure  Chemical
  Node                  gpm        ft       psi      mg/L
  --------------------------------------------------------
  10                   0.00    145.03     -0.85      0.00
  15                 621.42    125.35     40.45      0.00
  20                   0.00    158.00     12.57      0.00
  35                1630.89    145.64     57.69      0.00
  40                   0.00    145.00      5.68      0.00
  50                   0.00    140.00     10.18      0.00
  60                   0.00    209.00     90.56      0.00
  601                  0.00    302.41    131.04      0.00
  61                   0.00    302.41    131.04      0.00
  101                271.63    145.03     44.64      0.00
  103                190.48    145.00     44.20      0.00
  105                193.58    146.38     51.08      0.00
  107                 78.14    146.38     53.89      0.00
  109                330.90    145.00     54.03      0.00
  111                202.97    145.78     58.83      0.00
  113                 28.61    145.86     62.33      0.00
  115                 74.50    146.55     57.43      0.00
  117                168.33    149.67     58.96      0.00
  119                251.87    157.40     67.34      0.00
  120                  0.00    154.90     67.12      0.00
  121                 59.53    160.89     70.58      0.00
  123                  0.00    165.35     66.88      0.00
  125                 65.21    160.32     64.70      0.00
  127                 25.25    158.70     44.50      0.00
  129                  0.00    158.69     46.66      0.00
  131                 61.13    158.66     66.15      0.00
  139                  8.42    152.85     52.80      0.00
  141                 14.09    148.72     62.71      0.00
  143                  8.87    137.84     61.68      0.00
  145                 39.51    149.92     64.53      0.00
  147                 12.23    150.85     57.35      0.00
  149                 38.71    151.24     58.60      0.00
  151                206.61    155.15     52.71      0.00
  153                 63.16    155.25     38.59      0.00
  157                 74.06    154.97     61.47      0.00
  159                 59.09    151.62     63.10      0.00
  161                 22.59    149.35     62.98      0.00
  163                 13.47    148.90     62.35      0.00
  164                  0.00    148.90     62.35      0.00
  166                  3.72    148.90     65.38      0.00
  167                 20.82    147.04     65.88      0.00
  169                  0.00    147.04     65.88      0.00
  171                 56.26    145.97     64.98      0.00
  173                  0.00    145.95     64.97      0.00
  177                 83.18    145.63     59.63      0.00
  179                  0.00    145.61     59.63      0.00
  181                  0.00    145.65     59.64      0.00
  183                  0.00    145.61     58.33      0.00
  184                  0.00    144.37     55.62      0.00
  185                 36.68    144.93     55.86      0.00
  187                  0.00    145.56     57.65      0.00
  189                154.33    145.90     61.48      0.00
  191                117.12    145.76     52.32      0.00
  193                101.97    145.86     55.40      0.00
  195                  0.00    145.94     56.52      0.00
  197                 24.37    145.76     53.19      0.00
  199                170.63    140.88     61.91      0.00
  201                 63.79    140.18     60.70      0.00
  203               4295.54    140.02     59.81      0.00
  204                  0.00    145.34     53.88      0.00
  205                 93.46    140.84     51.93      0.00
  206                  0.00    139.92     60.19      0.00
  207                 99.23    140.15     56.83      0.00
  208                  0.00    139.66     53.58      0.00
  209                  1.24    139.20     61.18      0.00
  211                 12.40    139.05     57.22      0.00
  213                 19.93    138.98     57.19      0.00
  215                131.83    138.76     57.09      0.00
  217                 34.63    138.74     57.51      0.00
  219                 59.09    138.72     58.38      0.00
  225                 32.60    138.73     56.65      0.00
  229                 91.78    138.87     55.62      0.00
  231                 23.57    138.87     58.00      0.00
  237                 22.32    138.99     54.16      0.00
  239                 63.79    138.99     54.59      0.00
  241                  0.00    138.99     54.59      0.00
  243                  6.21    138.99     54.16      0.00
  247                100.64    138.99     52.43      0.00
  249                  0.00    138.99     52.43      0.00
  251                 34.55    139.01     47.23      0.00
  253                 77.96    139.13     44.69      0.00
  255                 57.76    139.19     48.61      0.00
  257                  0.00    151.69     58.36      0.00
  259                  0.00    151.25     54.70      0.00
  261                  0.00    149.62     64.83      0.00
  263                  0.00    149.46     64.76      0.00
  265                  0.00    147.63     63.97      0.00
  267                  0.00    145.93     54.13      0.00
  269                  0.00    146.34     63.41      0.00
  271                  0.00    145.74     60.55      0.00
  273                  0.00    140.85     57.56      0.00
  275                  0.00    140.18     56.41      0.00
  River           -13161.90    220.00      0.00      0.00  Reservoir
  Lake                 0.00    167.00      0.00      0.00  Reservoir
  1                  422.72    145.00      5.68      0.00  Tank
  2                 -347.79    140.00     10.18      0.00  Tank
  3                 2180.32    158.00     12.57      0.00  Tank
   
   
  Link Results at 0:00:00 hrs:
  ----------------------------------------------
                       Flow  Velocity  Headloss
  Link                  gpm       fps   /1000ft
  ----------------------------------------------
  20               -2180.32      0.09      0.00
  40                -422.72      0.02      0.00
  50                 347.79      0.01      0.00
  60               13161.90      9.33      8.93
  101                  0.00      0.00      0.00
  103                159.09      0.25      0.02
  105               -430.72      1.22      0.53
  107                 21.74      0.06      0.00
  109                -31.39      0.05      0.00
  111               -362.29      1.03      0.39
  112                486.39      1.38      0.67
  113               -117.68      0.33      0.05
  114                117.54      0.75      0.35
  115                -56.40      0.36      0.09
  116                -28.75      0.08      0.00
  117                646.03      1.83      1.13
  119               -734.84      2.08      1.43
  120               1177.48      3.34      3.43
  121               1054.04      2.99      2.79
  122                371.72      2.37      2.92
  123               9865.31      4.48      1.74
  125              13161.90      5.97      2.97
  129               2865.34      2.03      0.61
  131               2579.47      1.83      0.50
  133              -2180.32      2.23      0.89
  135                373.89      0.27      0.01
  137                 61.13      0.10      0.00
  145                312.76      2.00      2.12
  147                304.34      1.94      2.02
  149               -630.29      4.02      7.77
  151               -621.42      3.97      7.57
  153                340.03      0.96      0.34
  155                379.55      1.08      0.42
  159               -391.77      1.11      0.45
  161               -430.48      2.75      3.83
  163               -157.50      0.45      0.08
  169                220.66      1.41      1.11
  171                479.59      1.36      0.65
  173               7956.38      3.61      1.17
  175               7882.32      3.58      1.15
  177               7823.23      3.55      1.13
  179               7542.77      3.42      1.06
  180                  3.72      0.01      0.00
  181                  3.72      0.01      0.00
  183               7308.89      3.32      1.00
  185                -20.82      0.13      0.01
  186                320.82      2.05      2.22
  187               6655.88      3.02      0.84
  189               4616.79      2.10      0.43
  191              -1982.83      1.41      0.31
  193              -1630.89      1.16      0.21
  195                489.94      1.39      0.68
  197                406.76      1.15      0.48
  199                -15.96      0.05      0.00
  201               -422.72      1.20      0.51
  202                528.39      3.37      5.60
  203                244.24      1.56      1.34
  204                528.39      1.50      0.78
  205                320.82      0.91      0.31
  207                260.20      0.74      0.21
  209                168.13      1.07      0.67
  211                632.19      1.79      1.08
  213                152.69      0.43      0.08
  215                 88.46      0.25      0.03
  217               -255.37      0.72      0.20
  219               -257.87      0.73      0.21
  221                257.87      1.65      1.48
  223                 14.45      0.04      0.00
  225                 38.81      0.11      0.01
  229               4616.79      3.27      1.27
  231               4322.55      3.07      1.12
  233               4295.54      3.05      1.29
  235                123.61      0.35      0.05
  237                450.02      1.28      0.58
  238                422.52      1.20      0.51
  239                 71.73      0.20      0.02
  240                422.52      1.20      0.51
  241                422.52      1.20      0.51
  243                421.28      0.67      0.13
  245                318.56      0.51      0.08
  247                258.16      0.41      0.05
  249                126.33      0.20      0.01
  251                 59.09      0.12      0.01
  257                 32.60      0.09      0.00
  261                 40.47      0.26      0.05
  263                 23.57      0.07      0.00
  269                 90.31      0.26      0.03
  271                 74.87      0.48      0.15
  273                 -6.88      0.02      0.00
  275                -22.75      0.06      0.00
  277                  6.21      0.02      0.00
  281                -28.96      0.12      0.01
  283                -47.92      0.14      0.01
  285                  2.13      0.01      0.00
  287               -131.73      0.54      0.14
  289                347.79      1.42      0.87
  291                 77.96      0.32      0.05
  293                 80.34      0.51      0.17
  295                -45.79      0.13      0.01
  297                495.15      3.16      4.97
  299                237.91      1.52      1.28
  301                237.91      1.52      1.28
  303                257.25      1.64      1.48
  305                150.88      0.43      0.08
  307                408.13      1.16      0.48
  309                216.69      1.38      1.08
  311               -128.23      0.36      0.06
  313                494.19      1.40      0.69
  315              -2120.83      1.50      0.35
  317                108.52      0.69      0.30
  319                 15.09      0.04      0.00
  321               7525.58      3.42      1.06
  323                -36.79      0.10      0.01
  325                138.00      0.88      0.47
  329              13161.90      5.97      3.01
  330                  0.00      0.00      0.00
  333                 -0.00      0.00      0.00
  10                   0.00      0.00      0.00  Pump
  335              13161.90      0.00    -93.41  Pump
   
   
  Node Results at 0:05:00 hrs:
  --------------------------------------------------------
                     Demand      Head  Pressure  Chemical
  Node                  gpm        ft       psi      mg/L
  --------------------------------------------------------
  10                   0.00    145.07     -0.84      0.00
  15                 621.42    125.41     40.47      0.00
  20                   0.00    158.07     12.60      0.00
  35                1630.89    145.68     57.71      0.00
  40                   0.00    145.05      5.70      0.00
  50                   0.00    139.88     10.13      0.00
  60                   0.00    209.01     90.56      0.00
  601                  0.00    302.43    131.04      0.00
  61                   0.00    302.43    131.04      0.00
  101                271.63    145.07     44.66      0.00
  103                190.48    145.04     44.21      0.00
  105                193.58    146.42     51.10      0.00
  107                 78.14    146.42     53.91      0.00
  109                330.90    145.04     54.05      0.00
  111                202.97    145.82     58.85      0.00
  113                 28.61    145.90     62.35      0.00
  115                 74.50    146.59     57.45      0.00
  117                168.33    149.72     58.98      0.00
  119                251.87    157.45     67.36      0.00
  120                  0.00    154.95     67.14      0.00
  121                 59.53    160.94     70.60      0.00
  123                  0.00    165.40     66.90      0.00
  125                 65.21    160.38     64.73      0.00
  127                 25.25    158.76     44.53      0.00
  129                  0.00    158.75     46.69      0.00
  131                 61.13    158.73     66.18      0.00
  139                  8.42    152.91     52.82      0.00
  141                 14.09    148.77     62.73      0.00
  143                  8.87    137.89     61.70      0.00
  145                 39.51    149.98     64.55      0.00
  147                 12.23    150.90     57.37      0.00
  149                 38.71    151.30     58.62      0.00
  151                206.61    155.21     52.74      0.00
  153                 63.16    155.30     38.61      0.00
  157                 74.06    155.02     61.49      0.00
  159                 59.09    151.66     63.12      0.00
  161                 22.59    149.39     63.00      0.00
  163                 13.47    148.94     62.37      0.00
  164                  0.00    148.94     62.37      0.00
  166                  3.72    148.94     65.40      0.00
  167                 20.82    147.08     65.89      0.00
  169                  0.00    147.08     65.89      0.00
  171                 56.26    146.01     65.00      0.00
  173                  0.00    145.99     64.99      0.00
  177                 83.18    145.66     59.65      0.00
  179                  0.00    145.65     59.64      0.00
  181                  0.00    145.68     59.66      0.00
  183                  0.00    145.65     58.34      0.00
  184                  0.00    144.40     55.64      0.00
  185                 36.68    144.96     55.88      0.00
  187                  0.00    145.60     57.67      0.00
  189                154.33    145.93     61.50      0.00
  191                117.12    145.80     52.34      0.00
  193                101.97    145.90     55.42      0.00
  195                  0.00    145.98     56.54      0.00
  197                 24.37    145.80     53.21      0.00
  199                170.63    140.90     61.92      0.00
  201                 63.79    140.19     60.70      0.00
  203               4295.54    140.04     59.81      0.00
  204                  0.00    145.37     53.89      0.00
  205                 93.46    140.86     51.94      0.00
  206                  0.00    139.92     60.19      0.00
  207                 99.23    140.16     56.83      0.00
  208                  0.00    139.64     53.57      0.00
  209                  1.24    139.17     61.17      0.00
  211                 12.40    139.01     57.20      0.00
  213                 19.93    138.93     57.17      0.00
  215                131.83    138.72     57.07      0.00
  217                 34.63    138.69     57.50      0.00
  219                 59.09    138.68     58.36      0.00
  225                 32.60    138.69     56.63      0.00
  229                 91.78    138.82     55.60      0.00
  231                 23.57    138.82     57.98      0.00
  237                 22.32    138.93     54.13      0.00
  239                 63.79    138.93     54.57      0.00
  241                  0.00    138.93     54.57      0.00
  243                  6.21    138.93     54.13      0.00
  247                100.64    138.94     52.40      0.00
  249                  0.00    138.94     52.40      0.00
  251                 34.55    138.95     47.21      0.00
  253                 77.96    139.06     44.66      0.00
  255                 57.76    139.12     48.58      0.00
  257                  0.00    151.74     58.38      0.00
  259                  0.00    151.29     54.72      0.00
  261                  0.00    149.67     64.85      0.00
  263                  0.00    149.50     64.78      0.00
  265                  0.00    147.67     63.98      0.00
  267                  0.00    145.97     54.15      0.00
  269                  0.00    146.38     63.42      0.00
  271                  0.00    145.77     60.56      0.00
  273                  0.00    140.86     57.57      0.00
  275                  0.00    140.19     56.41      0.00
  River           -13160.14    220.00      0.00      0.00  Reservoir
  Lake                 0.00    167.00      0.00      0.00  Reservoir
  1                  418.07    145.05      5.70      0.00  Tank
  2                 -337.32    139.88     10.13      0.00  Tank
  3                 2172.75    158.07     12.60      0.00  Tank
   
   
  Link Results at 0:05:00 hrs:
  ----------------------------------------------
                       Flow  Velocity  Headloss
  Link                  gpm       fps   /1000ft
  ----------------------------------------------
  20               -2172.75      0.09      0.00
  40                -418.07      0.02      0.00
  50                 337.32      0.01      0.00
  60               13160.14      9.33      8.93
  101                  0.00      0.00      0.00
  103                159.27      0.25      0.02
  105               -430.90      1.22      0.53
  107                 21.85      0.06      0.00
  109                -31.21      0.05      0.00
  111               -362.11      1.03      0.39
  112                486.81      1.38      0.67
  113               -117.50      0.33      0.05
  114                117.68      0.75      0.35
  115                -56.28      0.36      0.09
  116                -28.44      0.08      0.00
  117                646.33      1.83      1.13
  119               -735.27      2.09      1.43
  120               1178.02      3.34      3.43
  121               1054.54      2.99      2.80
  122                371.90      2.37      2.92
  123               9870.70      4.48      1.74
  125              13160.14      5.97      2.97
  129               2858.00      2.03      0.61
  131               2572.04      1.82      0.50
  133              -2172.75      2.22      0.89
  135                374.04      0.27      0.01
  137                 61.13      0.10      0.00
  145                312.90      2.00      2.12
  147                304.48      1.94      2.02
  149               -630.29      4.02      7.77
  151               -621.42      3.97      7.57
  153                339.89      0.96      0.34
  155                379.40      1.08      0.42
  159               -391.63      1.11      0.45
  161               -430.34      2.75      3.83
  163               -157.59      0.45      0.08
  169                220.76      1.41      1.11
  171                479.35      1.36      0.65
  173               7961.47      3.61      1.17
  175               7887.41      3.58      1.15
  177               7828.32      3.55      1.14
  179               7547.78      3.43      1.06
  180                  3.72      0.01      0.00
  181                  3.72      0.01      0.00
  183               7313.89      3.32      1.00
  185                -20.82      0.13      0.01
  186                321.50      2.05      2.23
  187               6660.92      3.02      0.84
  189               4625.97      2.10      0.43
  191              -1978.69      1.40      0.31
  193              -1630.89      1.16      0.21
  195                485.88      1.38      0.67
  197                402.70      1.14      0.47
  199                -15.37      0.04      0.00
  201               -418.07      1.19      0.50
  202                529.67      3.38      5.63
  203                244.85      1.56      1.35
  204                529.67      1.50      0.78
  205                321.50      0.91      0.31
  207                260.22      0.74      0.21
  209                168.32      1.07      0.67
  211                632.15      1.79      1.08
  213                153.18      0.43      0.08
  215                 88.79      0.25      0.03
  217               -255.44      0.72      0.20
  219               -257.95      0.73      0.21
  221                257.95      1.65      1.49
  223                 14.86      0.04      0.00
  225                 39.23      0.11      0.01
  229               4625.97      3.28      1.27
  231               4330.16      3.07      1.12
  233               4295.54      3.05      1.29
  235                125.18      0.36      0.05
  237                452.70      1.28      0.58
  238                432.99      1.23      0.54
  239                 79.53      0.23      0.02
  240                432.99      1.23      0.54
  241                432.99      1.23      0.54
  243                431.75      0.69      0.13
  245                320.00      0.51      0.08
  247                258.16      0.41      0.05
  249                126.33      0.20      0.01
  251                 59.09      0.12      0.01
  257                 32.60      0.09      0.00
  261                 41.91      0.27      0.05
  263                 23.57      0.07      0.00
  269                 99.35      0.28      0.04
  271                 73.44      0.47      0.14
  273                  3.59      0.01      0.00
  275                -18.74      0.05      0.00
  277                  6.21      0.02      0.00
  281                -24.94      0.10      0.01
  283                -41.46      0.12      0.01
  285                 -0.48      0.00      0.00
  287               -125.11      0.51      0.13
  289                337.32      1.38      0.82
  291                 77.96      0.32      0.05
  293                 76.49      0.49      0.16
  295                -41.94      0.12      0.01
  297                495.39      3.16      4.97
  299                238.02      1.52      1.28
  301                238.02      1.52      1.28
  303                257.37      1.64      1.48
  305                150.94      0.43      0.08
  307                408.31      1.16      0.48
  309                216.71      1.38      1.08
  311               -127.91      0.36      0.06
  313                494.07      1.40      0.69
  315              -2116.77      1.50      0.35
  317                108.69      0.69      0.30
  319                 16.49      0.05      0.00
  321               7530.59      3.42      1.06
  323                -29.17      0.08      0.00
  325                138.08      0.88      0.47
  329              13160.14      5.97      3.01
  330                  0.00      0.00      0.00
  333                 -0.00      0.00      0.00
  10                   0.00      0.00      0.00  Pump
  335              13160.14      0.00    -93.42  Pump
   
   
  Node Results at 0:10:00 hrs:
  --------------------------------------------------------
                     Demand      Head  Pressure  Chemical
  Node                  gpm        ft       psi      mg/L
  --------------------------------------------------------
  10                   0.00    145.11     -0.82      0.00
  15                 621.42    125.46     40.50      0.00
  20                   0.00    158.14     12.63      0.00
  35                1630.89    145.71     57.72      0.00
  40                   0.00    145.10      5.72      0.00
  50                   0.00    139.77     10.08      0.00
  60                   0.00    209.01     90.56      0.00
  601                  0.00    302.45    131.05      0.00
  61                   0.00    302.45    131.05      0.00
  101                271.63    145.11     44.68      0.00
  103                190.48    145.08     44.23      0.00
  105                193.58    146.46     51.11      0.00
  107                 78.14    146.46     53.93      0.00
  109                330.90    145.08     54.07      0.00
  111                202.97    145.85     58.87      0.00
  113                 28.61    145.93     62.37      0.00
  115                 74.50    146.63     57.47      0.00
  117                168.33    149.76     59.00      0.00
  119                251.87    157.50     67.38      0.00
  120                  0.00    154.99     67.16      0.00
  121                 59.53    161.00     70.63      0.00
  123                  0.00    165.45     66.92      0.00
  125                 65.21    160.43     64.75      0.00
  127                 25.25    158.83     44.56      0.00
  129                  0.00    158.82     46.72      0.00
  131                 61.13    158.79     66.21      0.00
  139                  8.42    152.97     52.85      0.00
  141                 14.09    148.83     62.75      0.00
  143                  8.87    137.95     61.72      0.00
  145                 39.51    150.03     64.58      0.00
  147                 12.23    150.96     57.39      0.00
  149                 38.71    151.35     58.65      0.00
  151                206.61    155.26     52.76      0.00
  153                 63.16    155.35     38.63      0.00
  157                 74.06    155.06     61.51      0.00
  159                 59.09    151.71     63.13      0.00
  161                 22.59    149.43     63.02      0.00
  163                 13.47    148.98     62.38      0.00
  164                  0.00    148.98     62.38      0.00
  166                  3.72    148.98     65.42      0.00
  167                 20.82    147.11     65.91      0.00
  169                  0.00    147.11     65.91      0.00
  171                 56.26    146.04     65.01      0.00
  173                  0.00    146.02     65.00      0.00
  177                 83.18    145.70     59.67      0.00
  179                  0.00    145.69     59.66      0.00
  181                  0.00    145.72     59.67      0.00
  183                  0.00    145.69     58.36      0.00
  184                  0.00    144.43     55.65      0.00
  185                 36.68    145.00     55.89      0.00
  187                  0.00    145.63     57.69      0.00
  189                154.33    145.97     61.52      0.00
  191                117.12    145.83     52.36      0.00
  193                101.97    145.94     55.44      0.00
  195                  0.00    146.01     56.55      0.00
  197                 24.37    145.84     53.22      0.00
  199                170.63    140.92     61.93      0.00
  201                 63.79    140.21     60.71      0.00
  203               4295.54    140.05     59.82      0.00
  204                  0.00    145.41     53.91      0.00
  205                 93.46    140.88     51.94      0.00
  206                  0.00    139.92     60.19      0.00
  207                 99.23    140.17     56.84      0.00
  208                  0.00    139.63     53.57      0.00
  209                  1.24    139.13     61.15      0.00
  211                 12.40    138.97     57.18      0.00
  213                 19.93    138.89     57.15      0.00
  215                131.83    138.67     57.05      0.00
  217                 34.63    138.65     57.48      0.00
  219                 59.09    138.64     58.34      0.00
  225                 32.60    138.64     56.61      0.00
  229                 91.78    138.77     55.58      0.00
  231                 23.57    138.77     57.96      0.00
  237                 22.32    138.88     54.11      0.00
  239                 63.79    138.88     54.54      0.00
  241                  0.00    138.88     54.54      0.00
  243                  6.21    138.88     54.11      0.00
  247                100.64    138.88     52.38      0.00
  249                  0.00    138.88     52.38      0.00
  251                 34.55    138.89     47.18      0.00
  253                 77.96    138.99     44.62      0.00
  255                 57.76    139.05     48.55      0.00
  257                  0.00    151.78     58.40      0.00
  259                  0.00    151.33     54.74      0.00
  261                  0.00    149.71     64.87      0.00
  263                  0.00    149.54     64.80      0.00
  265                  0.00    147.71     64.00      0.00
  267                  0.00    146.01     54.16      0.00
  269                  0.00    146.41     63.44      0.00
  271                  0.00    145.81     60.58      0.00
  273                  0.00    140.88     57.58      0.00
  275                  0.00    140.21     56.42      0.00
  River           -13158.39    220.00      0.00      0.00  Reservoir
  Lake                 0.00    167.00      0.00      0.00  Reservoir
  1                  413.62    145.10      5.72      0.00  Tank
  2                 -327.11    139.77     10.08      0.00  Tank
  3                 2165.24    158.14     12.63      0.00  Tank
   
   
  Link Results at 0:10:00 hrs:
  ----------------------------------------------
                       Flow  Velocity  Headloss
  Link                  gpm       fps   /1000ft
  ----------------------------------------------
  20               -2165.24      0.09      0.00
  40                -413.62      0.02      0.00
  50                 327.11      0.01      0.00
  60               13158.39      9.33      8.93
  101                  0.00      0.00      0.00
  103                159.45      0.25      0.02
  105               -431.08      1.22      0.53
  107                 21.96      0.06      0.00
  109                -31.03      0.05      0.00
  111               -361.93      1.03      0.39
  112                487.22      1.38      0.67
  113               -117.32      0.33      0.05
  114                117.81      0.75      0.35
  115                -56.17      0.36      0.09
  116                -28.13      0.08      0.00
  117                646.62      1.83      1.13
  119               -735.70      2.09      1.44
  120               1178.55      3.34      3.44
  121               1055.03      2.99      2.80
  122                372.09      2.37      2.93
  123               9876.04      4.48      1.75
  125              13158.39      5.97      2.97
  129               2850.73      2.02      0.60
  131               2564.67      1.82      0.50
  133              -2165.24      2.21      0.88
  135                374.18      0.27      0.01
  137                 61.13      0.10      0.00
  145                313.04      2.00      2.13
  147                304.62      1.94      2.02
  149               -630.29      4.02      7.77
  151               -621.42      3.97      7.57
  153                339.75      0.96      0.34
  155                379.26      1.08      0.42
  159               -391.49      1.11      0.45
  161               -430.20      2.75      3.83
  163               -157.69      0.45      0.08
  169                220.85      1.41      1.11
  171                479.12      1.36      0.65
  173               7966.50      3.62      1.17
  175               7892.44      3.58      1.15
  177               7833.36      3.56      1.14
  179               7552.74      3.43      1.06
  180                  3.72      0.01      0.00
  181                  3.72      0.01      0.00
  183               7318.83      3.32      1.00
  185                -20.82      0.13      0.01
  186                322.17      2.06      2.24
  187               6665.89      3.03      0.84
  189               4634.92      2.10      0.43
  191              -1974.71      1.40      0.31
  193              -1630.89      1.16      0.21
  195                481.99      1.37      0.66
  197                398.81      1.13      0.46
  199                -14.81      0.04      0.00
  201               -413.62      1.17      0.49
  202                530.93      3.39      5.65
  203                245.44      1.57      1.35
  204                530.93      1.51      0.78
  205                322.17      0.91      0.31
  207                260.24      0.74      0.21
  209                168.50      1.08      0.68
  211                632.11      1.79      1.08
  213                153.67      0.44      0.08
  215                 89.13      0.25      0.03
  217               -255.52      0.72      0.20
  219               -258.03      0.73      0.21
  221                258.03      1.65      1.49
  223                 15.27      0.04      0.00
  225                 39.63      0.11      0.01
  229               4634.92      3.29      1.28
  231               4337.53      3.08      1.13
  233               4295.54      3.05      1.29
  235                126.76      0.36      0.06
  237                455.38      1.29      0.59
  238                443.20      1.26      0.56
  239                 87.05      0.25      0.03
  240                443.20      1.26      0.56
  241                443.20      1.26      0.56
  243                441.95      0.71      0.14
  245                321.48      0.51      0.08
  247                258.16      0.41      0.05
  249                126.33      0.20      0.01
  251                 59.09      0.12      0.01
  257                 32.60      0.09      0.00
  261                 43.39      0.28      0.05
  263                 23.57      0.07      0.00
  269                108.08      0.31      0.04
  271                 71.96      0.46      0.14
  273                 13.80      0.04      0.00
  275                -14.92      0.04      0.00
  277                  6.21      0.02      0.00
  281                -21.12      0.09      0.00
  283                -35.08      0.10      0.01
  285                 -3.10      0.01      0.00
  287               -118.67      0.48      0.12
  289                327.11      1.34      0.78
  291                 77.96      0.32      0.05
  293                 72.72      0.46      0.14
  295                -38.17      0.11      0.01
  297                495.61      3.16      4.98
  299                238.13      1.52      1.28
  301                238.13      1.52      1.28
  303                257.49      1.64      1.48
  305                151.00      0.43      0.08
  307                408.49      1.16      0.48
  309                216.72      1.38      1.08
  311               -127.59      0.36      0.06
  313                493.94      1.40      0.69
  315              -2112.88      1.50      0.35
  317                108.85      0.69      0.30
  319                 17.92      0.05      0.00
  321               7535.55      3.42      1.06
  323                -21.80      0.06      0.00
  325                138.17      0.88      0.47
  329              13158.39      5.97      3.01
  330                  0.00      0.00      0.00
  333                 -0.00      0.00      0.00
  10                   0.00      0.00      0.00  Pump
  335              13158.39      0.00    -93.44  Pump
   
   
  Node Results at 0:15:00 hrs:
  --------------------------------------------------------
                     Demand      Head  Pressure  Chemical
  Node                  gpm        ft       psi      mg/L
  --------------------------------------------------------
  10                   0.00    145.15     -0.80      0.00
  15                 621.42    125.52     40.52      0.00
  20                   0.00    158.21     12.66      0.00
  35                1630.89    145.75     57.74      0.00
  40                   0.00    145.15      5.74      0.00
  50                   0.00    139.66     10.03      0.00
  60                   0.00    209.01     90.57      0.00
  601                  0.00    302.47    131.06      0.00
  61                   0.00    302.47    131.06      0.00
  101                271.63    145.15     44.69      0.00
  103                190.48    145.12     44.25      0.00
  105                193.58    146.50     51.13      0.00
  107                 78.14    146.50     53.95      0.00
  109                330.90    145.12     54.09      0.00
  111                202.97    145.89     58.88      0.00
  113                 28.61    145.97     62.38      0.00
  115                 74.50    146.67     57.49      0.00
  117                168.33    149.80     59.02      0.00
  119                251.87    157.55     67.40      0.00
  120                  0.00    155.04     67.18      0.00
  121                 59.53    161.05     70.65      0.00
  123                  0.00    165.50     66.95      0.00
  125                 65.21    160.49     64.77      0.00
  127                 25.25    158.89     44.58      0.00
  129                  0.00    158.88     46.74      0.00
  131                 61.13    158.86     66.23      0.00
  139                  8.42    153.03     52.88      0.00
  141                 14.09    148.88     62.78      0.00
  143                  8.87    138.01     61.75      0.00
  145                 39.51    150.09     64.60      0.00
  147                 12.23    151.01     57.42      0.00
  149                 38.71    151.40     58.67      0.00
  151                206.61    155.31     52.78      0.00
  153                 63.16    155.41     38.65      0.00
  157                 74.06    155.11     61.53      0.00
  159                 59.09    151.75     63.15      0.00
  161                 22.59    149.47     63.03      0.00
  163                 13.47    149.01     62.40      0.00
  164                  0.00    149.01     62.40      0.00
  166                  3.72    149.01     65.43      0.00
  167                 20.82    147.15     65.93      0.00
  169                  0.00    147.15     65.93      0.00
  171                 56.26    146.08     65.03      0.00
  173                  0.00    146.06     65.02      0.00
  177                 83.18    145.74     59.68      0.00
  179                  0.00    145.72     59.68      0.00
  181                  0.00    145.76     59.69      0.00
  183                  0.00    145.72     58.38      0.00
  184                  0.00    144.46     55.66      0.00
  185                 36.68    145.03     55.91      0.00
  187                  0.00    145.67     57.70      0.00
  189                154.33    146.01     61.53      0.00
  191                117.12    145.87     52.37      0.00
  193                101.97    145.98     55.45      0.00
  195                  0.00    146.05     56.57      0.00
  197                 24.37    145.87     53.24      0.00
  199                170.63    140.94     61.93      0.00
  201                 63.79    140.22     60.72      0.00
  203               4295.54    140.07     59.83      0.00
  204                  0.00    145.44     53.92      0.00
  205                 93.46    140.89     51.95      0.00
  206                  0.00    139.91     60.19      0.00
  207                 99.23    140.18     56.84      0.00
  208                  0.00    139.62     53.56      0.00
  209                  1.24    139.10     61.14      0.00
  211                 12.40    138.92     57.16      0.00
  213                 19.93    138.85     57.13      0.00
  215                131.83    138.63     57.04      0.00
  217                 34.63    138.61     57.46      0.00
  219                 59.09    138.60     58.32      0.00
  225                 32.60    138.60     56.59      0.00
  229                 91.78    138.72     55.56      0.00
  231                 23.57    138.72     57.94      0.00
  237                 22.32    138.83     54.09      0.00
  239                 63.79    138.83     54.52      0.00
  241                  0.00    138.83     54.52      0.00
  243                  6.21    138.82     54.09      0.00
  247                100.64    138.83     52.35      0.00
  249                  0.00    138.83     52.35      0.00
  251                 34.55    138.83     47.16      0.00
  253                 77.96    138.92     44.59      0.00
  255                 57.76    138.98     48.52      0.00
  257                  0.00    151.83     58.42      0.00
  259                  0.00    151.38     54.76      0.00
  261                  0.00    149.75     64.89      0.00
  263                  0.00    149.58     64.81      0.00
  265                  0.00    147.74     64.02      0.00
  267                  0.00    146.04     54.18      0.00
  269                  0.00    146.45     63.46      0.00
  271                  0.00    145.85     60.60      0.00
  273                  0.00    140.90     57.58      0.00
  275                  0.00    140.22     56.43      0.00
  River           -13156.64    220.00      0.00      0.00  Reservoir
  Lake                 0.00    167.00      0.00      0.00  Reservoir
  1                  409.35    145.15      5.74      0.00  Tank
  2                 -317.16    139.66     10.03      0.00  Tank
  3                 2157.80    158.21     12.66      0.00  Tank
   
   
  Link Results at 0:15:00 hrs:
  ----------------------------------------------
                       Flow  Velocity  Headloss
  Link                  gpm       fps   /1000ft
  ----------------------------------------------
  20               -2157.80      0.09      0.00
  40                -409.35      0.02      0.00
  50                 317.16      0.01      0.00
  60               13156.64      9.33      8.93
  101                  0.00      0.00      0.00
  103                159.63      0.25      0.02
  105               -431.25      1.22      0.53
  107                 22.07      0.06      0.00
  109                -30.85      0.05      0.00
  111               -361.75      1.03      0.39
  112                487.62      1.38      0.67
  113               -117.14      0.33      0.05
  114                117.94      0.75      0.35
  115                -56.07      0.36      0.09
  116                -27.82      0.08      0.00
  117                646.90      1.84      1.13
  119               -736.13      2.09      1.44
  120               1179.08      3.34      3.44
  121               1055.51      2.99      2.80
  122                372.28      2.38      2.93
  123               9881.31      4.48      1.75
  125              13156.64      5.97      2.97
  129               2843.52      2.02      0.60
  131               2557.37      1.81      0.49
  133              -2157.80      2.20      0.87
  135                374.32      0.27      0.01
  137                 61.13      0.10      0.00
  145                313.18      2.00      2.13
  147                304.76      1.95      2.02
  149               -630.29      4.02      7.77
  151               -621.42      3.97      7.57
  153                339.61      0.96      0.34
  155                379.12      1.08      0.42
  159               -391.35      1.11      0.45
  161               -430.06      2.74      3.83
  163               -157.78      0.45      0.08
  169                220.94      1.41      1.11
  171                478.88      1.36      0.65
  173               7971.48      3.62      1.17
  175               7897.42      3.58      1.15
  177               7838.33      3.56      1.14
  179               7557.63      3.43      1.06
  180                  3.72      0.01      0.00
  181                  3.72      0.01      0.00
  183               7323.71      3.32      1.00
  185                -20.82      0.13      0.01
  186                322.82      2.06      2.25
  187               6670.80      3.03      0.84
  189               4643.65      2.11      0.43
  191              -1970.90      1.40      0.30
  193              -1630.89      1.16      0.21
  195                478.26      1.36      0.65
  197                395.08      1.12      0.45
  199                -14.28      0.04      0.00
  201               -409.35      1.16      0.48
  202                532.15      3.40      5.68
  203                246.01      1.57      1.36
  204                532.15      1.51      0.79
  205                322.82      0.92      0.31
  207                260.28      0.74      0.21
  209                168.68      1.08      0.68
  211                632.08      1.79      1.08
  213                154.14      0.44      0.08
  215                 89.46      0.25      0.03
  217               -255.59      0.73      0.20
  219               -258.11      0.73      0.21
  221                258.11      1.65      1.49
  223                 15.67      0.04      0.00
  225                 40.04      0.11      0.01
  229               4643.65      3.29      1.28
  231               4344.67      3.08      1.13
  233               4295.54      3.05      1.29
  235                128.35      0.36      0.06
  237                458.05      1.30      0.60
  238                453.15      1.29      0.59
  239                 94.32      0.27      0.03
  240                453.15      1.29      0.59
  241                453.15      1.29      0.59
  243                451.90      0.72      0.14
  245                322.99      0.52      0.08
  247                258.16      0.41      0.05
  249                126.33      0.20      0.01
  251                 59.09      0.12      0.01
  257                 32.60      0.09      0.00
  261                 44.90      0.29      0.06
  263                 23.57      0.07      0.00
  269                116.52      0.33      0.05
  271                 70.45      0.45      0.13
  273                 23.75      0.07      0.00
  275                -11.19      0.03      0.00
  277                  6.21      0.02      0.00
  281                -17.39      0.07      0.00
  283                -28.86      0.08      0.00
  285                 -5.64      0.02      0.00
  287               -112.40      0.46      0.11
  289                317.16      1.30      0.73
  291                 77.96      0.32      0.05
  293                 69.05      0.44      0.13
  295                -34.50      0.10      0.00
  297                495.84      3.16      4.98
  299                238.24      1.52      1.28
  301                238.24      1.52      1.28
  303                257.61      1.64      1.48
  305                151.06      0.43      0.08
  307                408.67      1.16      0.48
  309                216.74      1.38      1.08
  311               -127.27      0.36      0.06
  313                493.83      1.40      0.69
  315              -2109.15      1.50      0.35
  317                108.99      0.70      0.30
  319                 19.37      0.05      0.00
  321               7540.44      3.42      1.06
  323                -14.66      0.04      0.00
  325                138.25      0.88      0.47
  329              13156.64      5.97      3.01
  330                  0.00      0.00      0.00
  333                 -0.00      0.00      0.00
  10                   0.00      0.00      0.00  Pump
  335              13156.64      0.00    -93.45  Pump
   
   
  Node Results at 0:20:00 hrs:
  --------------------------------------------------------
                     Demand      Head  Pressure  Chemical
  Node                  gpm        ft       psi      mg/L
  --------------------------------------------------------
  10                   0.00    145.18     -0.79      0.00
  15                 621.42    125.57     40.55      0.00
  20                   0.00    158.27     12.68      0.00
  35                1630.89    145.79     57.75      0.00
  40                   0.00    145.20      5.76      0.00
  50                   0.00    139.55      9.99      0.00
  60                   0.00    209.02     90.57      0.00
  601                  0.00    302.48    131.07      0.00
  61                   0.00    302.48    131.07      0.00
  101                271.63    145.18     44.71      0.00
  103                190.48    145.16     44.26      0.00
  105                193.58    146.54     51.15      0.00
  107                 78.14    146.54     53.96      0.00
  109                330.90    145.16     54.10      0.00
  111                202.97    145.93     58.90      0.00
  113                 28.61    146.01     62.40      0.00
  115                 74.50    146.71     57.50      0.00
  117                168.33    149.85     59.04      0.00
  119                251.87    157.60     67.42      0.00
  120                  0.00    155.09     67.20      0.00
  121                 59.53    161.10     70.67      0.00
  123                  0.00    165.56     66.97      0.00
  125                 65.21    160.55     64.80      0.00
  127                 25.25    158.96     44.61      0.00
  129                  0.00    158.94     46.77      0.00
  131                 61.13    158.92     66.26      0.00
  139                  8.42    153.09     52.90      0.00
  141                 14.09    148.94     62.80      0.00
  143                  8.87    138.06     61.77      0.00
  145                 39.51    150.14     64.62      0.00
  147                 12.23    151.07     57.44      0.00
  149                 38.71    151.46     58.69      0.00
  151                206.61    155.36     52.80      0.00
  153                 63.16    155.46     38.68      0.00
  157                 74.06    155.16     61.55      0.00
  159                 59.09    151.79     63.17      0.00
  161                 22.59    149.51     63.05      0.00
  163                 13.47    149.05     62.42      0.00
  164                  0.00    149.05     62.42      0.00
  166                  3.72    149.05     65.45      0.00
  167                 20.82    147.19     65.94      0.00
  169                  0.00    147.19     65.94      0.00
  171                 56.26    146.11     65.04      0.00
  173                  0.00    146.09     65.04      0.00
  177                 83.18    145.78     59.70      0.00
  179                  0.00    145.76     59.69      0.00
  181                  0.00    145.79     59.71      0.00
  183                  0.00    145.76     58.39      0.00
  184                  0.00    144.50     55.68      0.00
  185                 36.68    145.07     55.92      0.00
  187                  0.00    145.71     57.72      0.00
  189                154.33    146.05     61.55      0.00
  191                117.12    145.91     52.39      0.00
  193                101.97    146.02     55.47      0.00
  195                  0.00    146.09     56.58      0.00
  197                 24.37    145.91     53.26      0.00
  199                170.63    140.95     61.94      0.00
  201                 63.79    140.24     60.72      0.00
  203               4295.54    140.09     59.83      0.00
  204                  0.00    145.48     53.94      0.00
  205                 93.46    140.91     51.96      0.00
  206                  0.00    139.91     60.19      0.00
  207                 99.23    140.19     56.84      0.00
  208                  0.00    139.60     53.56      0.00
  209                  1.24    139.06     61.12      0.00
  211                 12.40    138.88     57.15      0.00
  213                 19.93    138.81     57.11      0.00
  215                131.83    138.59     57.02      0.00
  217                 34.63    138.57     57.44      0.00
  219                 59.09    138.55     58.30      0.00
  225                 32.60    138.56     56.57      0.00
  229                 91.78    138.67     55.54      0.00
  231                 23.57    138.67     57.92      0.00
  237                 22.32    138.77     54.06      0.00
  239                 63.79    138.77     54.50      0.00
  241                  0.00    138.77     54.50      0.00
  243                  6.21    138.77     54.06      0.00
  247                100.64    138.77     52.33      0.00
  249                  0.00    138.77     52.33      0.00
  251                 34.55    138.78     47.13      0.00
  253                 77.96    138.85     44.56      0.00
  255                 57.76    138.91     48.49      0.00
  257                  0.00    151.87     58.44      0.00
  259                  0.00    151.42     54.78      0.00
  261                  0.00    149.80     64.91      0.00
  263                  0.00    149.63     64.83      0.00
  265                  0.00    147.78     64.03      0.00
  267                  0.00    146.08     54.20      0.00
  269                  0.00    146.49     63.47      0.00
  271                  0.00    145.88     60.61      0.00
  273                  0.00    140.91     57.59      0.00
  275                  0.00    140.24     56.43      0.00
  River           -13154.89    220.00      0.00      0.00  Reservoir
  Lake                 0.00    167.00      0.00      0.00  Reservoir
  1                  405.27    145.20      5.76      0.00  Tank
  2                 -307.46    139.55      9.99      0.00  Tank
  3                 2150.43    158.27     12.68      0.00  Tank
   
   
  Link Results at 0:20:00 hrs:
  ----------------------------------------------
                       Flow  Velocity  Headloss
  Link                  gpm       fps   /1000ft
  ----------------------------------------------
  20               -2150.43      0.09      0.00
  40                -405.27      0.02      0.00
  50                 307.46      0.01      0.00
  60               13154.89      9.33      8.92
  101                  0.00      0.00      0.00
  103                159.80      0.25      0.02
  105               -431.43      1.22      0.53
  107                 22.18      0.06      0.00
  109                -30.67      0.05      0.00
  111               -361.58      1.03      0.39
  112                488.02      1.38      0.67
  113               -116.96      0.33      0.05
  114                118.07      0.75      0.35
  115                -55.96      0.36      0.09
  116                -27.51      0.08      0.00
  117                647.19      1.84      1.13
  119               -736.55      2.09      1.44
  120               1179.60      3.35      3.44
  121               1055.99      3.00      2.80
  122                372.46      2.38      2.93
  123               9886.52      4.49      1.75
  125              13154.89      5.97      2.97
  129               2836.38      2.01      0.60
  131               2550.13      1.81      0.49
  133              -2150.43      2.20      0.87
  135                374.45      0.27      0.01
  137                 61.13      0.10      0.00
  145                313.32      2.00      2.13
  147                304.90      1.95      2.02
  149               -630.29      4.02      7.77
  151               -621.42      3.97      7.57
  153                339.47      0.96      0.34
  155                378.98      1.08      0.42
  159               -391.21      1.11      0.45
  161               -429.92      2.74      3.83
  163               -157.87      0.45      0.08
  169                221.04      1.41      1.12
  171                478.65      1.36      0.65
  173               7976.40      3.62      1.18
  175               7902.34      3.59      1.16
  177               7843.25      3.56      1.14
  179               7562.47      3.43      1.07
  180                  3.72      0.01      0.00
  181                  3.72      0.01      0.00
  183               7328.53      3.33      1.01
  185                -20.82      0.13      0.01
  186                323.47      2.06      2.26
  187               6675.64      3.03      0.85
  189               4652.16      2.11      0.43
  191              -1967.23      1.40      0.30
  193              -1630.89      1.16      0.21
  195                474.68      1.35      0.64
  197                391.50      1.11      0.45
  199                -13.77      0.04      0.00
  201               -405.27      1.15      0.48
  202                533.35      3.40      5.70
  203                246.56      1.57      1.37
  204                533.35      1.51      0.79
  205                323.47      0.92      0.31
  207                260.34      0.74      0.21
  209                168.86      1.08      0.68
  211                632.06      1.79      1.08
  213                154.61      0.44      0.08
  215                 89.80      0.25      0.03
  217               -255.66      0.73      0.20
  219               -258.19      0.73      0.21
  221                258.19      1.65      1.49
  223                 16.06      0.05      0.00
  225                 40.43      0.11      0.01
  229               4652.16      3.30      1.28
  231               4351.59      3.09      1.14
  233               4295.54      3.05      1.29
  235                129.94      0.37      0.06
  237                460.72      1.31      0.60
  238                462.85      1.31      0.61
  239                101.36      0.29      0.04
  240                462.85      1.31      0.61
  241                462.85      1.31      0.61
  243                461.61      0.74      0.15
  245                324.52      0.52      0.08
  247                258.16      0.41      0.05
  249                126.33      0.20      0.01
  251                 59.09      0.12      0.01
  257                 32.60      0.09      0.00
  261                 46.43      0.30      0.06
  263                 23.57      0.07      0.00
  269                124.68      0.35      0.05
  271                 68.91      0.44      0.13
  273                 33.45      0.09      0.00
  275                 -7.54      0.02      0.00
  277                  6.21      0.02      0.00
  281                -13.75      0.06      0.00
  283                -22.80      0.06      0.00
  285                 -8.11      0.02      0.00
  287               -106.28      0.43      0.10
  289                307.46      1.26      0.69
  291                 77.96      0.32      0.05
  293                 65.46      0.42      0.12
  295                -30.91      0.09      0.00
  297                496.07      3.17      4.99
  299                238.34      1.52      1.28
  301                238.34      1.52      1.28
  303                257.72      1.64      1.48
  305                151.12      0.43      0.08
  307                408.84      1.16      0.48
  309                216.75      1.38      1.08
  311               -126.96      0.36      0.06
  313                493.72      1.40      0.69
  315              -2105.57      1.49      0.34
  317                109.11      0.70      0.30
  319                 20.83      0.06      0.00
  321               7545.28      3.42      1.06
  323                 -7.74      0.02      0.00
  325                138.34      0.88      0.47
  329              13154.89      5.97      3.01
  330                  0.00      0.00      0.00
  333                 -0.00      0.00      0.00
  10                   0.00      0.00      0.00  Pump
  335              13154.89      0.00    -93.47  Pump
   
   
  Node Results at 0:25:00 hrs:
  --------------------------------------------------------
                     Demand      Head  Pressure  Chemical
  Node                  gpm        ft       psi      mg/L
  --------------------------------------------------------
  10                   0.00    145.22     -0.77      0.00
  15                 621.42    125.63     40.57      0.00
  20                   0.00    158.34     12.71      0.00
  35                1630.89    145.83     57.77      0.00
  40                   0.00    145.24      5.78      0.00
  50                   0.00    139.44      9.94      0.00
  60                   0.00    209.02     90.57      0.00
  601                  0.00    302.50    131.07      0.00
  61                   0.00    302.50    131.07      0.00
  101                271.63    145.22     44.73      0.00
  103                190.48    145.20     44.28      0.00
  105                193.58    146.58     51.17      0.00
  107                 78.14    146.58     53.98      0.00
  109                330.90    145.20     54.12      0.00
  111                202.97    145.97     58.92      0.00
  113                 28.61    146.05     62.42      0.00
  115                 74.50    146.75     57.52      0.00
  117                168.33    149.89     59.05      0.00
  119                251.87    157.65     67.44      0.00
  120                  0.00    155.14     67.22      0.00
  121                 59.53    161.15     70.69      0.00
  123                  0.00    165.61     66.99      0.00
  125                 65.21    160.60     64.82      0.00
  127                 25.25    159.02     44.64      0.00
  129                  0.00    159.01     46.80      0.00
  131                 61.13    158.99     66.29      0.00
  139                  8.42    153.15     52.93      0.00
  141                 14.09    148.99     62.83      0.00
  143                  8.87    138.12     61.80      0.00
  145                 39.51    150.20     64.65      0.00
  147                 12.23    151.12     57.46      0.00
  149                 38.71    151.51     58.72      0.00
  151                206.61    155.41     52.82      0.00
  153                 63.16    155.51     38.70      0.00
  157                 74.06    155.20     61.57      0.00
  159                 59.09    151.84     63.19      0.00
  161                 22.59    149.55     63.07      0.00
  163                 13.47    149.09     62.44      0.00
  164                  0.00    149.09     62.44      0.00
  166                  3.72    149.09     65.47      0.00
  167                 20.82    147.23     65.96      0.00
  169                  0.00    147.23     65.96      0.00
  171                 56.26    146.15     65.06      0.00
  173                  0.00    146.13     65.05      0.00
  177                 83.18    145.81     59.71      0.00
  179                  0.00    145.80     59.71      0.00
  181                  0.00    145.83     59.72      0.00
  183                  0.00    145.80     58.41      0.00
  184                  0.00    144.53     55.69      0.00
  185                 36.68    145.10     55.94      0.00
  187                  0.00    145.74     57.73      0.00
  189                154.33    146.08     61.56      0.00
  191                117.12    145.95     52.41      0.00
  193                101.97    146.05     55.49      0.00
  195                  0.00    146.13     56.60      0.00
  197                 24.37    145.95     53.27      0.00
  199                170.63    140.97     61.95      0.00
  201                 63.79    140.26     60.73      0.00
  203               4295.54    140.10     59.84      0.00
  204                  0.00    145.52     53.95      0.00
  205                 93.46    140.93     51.97      0.00
  206                  0.00    139.91     60.19      0.00
[...]
  219                 61.98    140.20     59.01      0.00
  225                 34.20    140.20     57.28      0.00
  229                 96.27    140.17     56.19      0.00
  231                 24.72    140.16     58.57      0.00
  237                 23.42    140.22     54.69      0.00
  239                 66.92    140.18     55.11      0.00
  241                  0.00    140.18     55.11      0.00
  243                  6.51    140.18     54.68      0.00
  247                105.57    140.18     52.94      0.00
  249                  0.00    140.18     52.94      0.00
  251                 36.24    140.18     47.74      0.00
  253                 81.78    140.13     45.12      0.00
  255                 60.58    140.20     49.05      0.00
  257                  0.00    152.71     58.80      0.00
  259                  0.00    152.30     55.16      0.00
  261                  0.00    150.81     65.35      0.00
  263                  0.00    150.66     65.28      0.00
  265                  0.00    149.51     64.78      0.00
  267                  0.00    147.92     54.99      0.00
  269                  0.00    148.36     64.28      0.00
  271                  0.00    147.92     61.50      0.00
  273                  0.00    143.51     58.71      0.00
  275                  0.00    142.96     57.61      0.00
  River           -13194.74    220.00      0.00      0.00  Reservoir
  Lake                 0.00    167.00      0.00      0.00  Reservoir
  1                 -222.85    148.04      6.99      0.00  Tank
  2                 -201.74    140.49     10.40      0.00  Tank
  3                 1338.84    159.70     13.30      0.00  Tank
   
   
  Link Results at 23:55:00 hrs:
  ----------------------------------------------
                       Flow  Velocity  Headloss
  Link                  gpm       fps   /1000ft
  ----------------------------------------------
  20               -1338.84      0.06      0.00
  40                 222.85      0.01      0.00
  50                 201.74      0.01      0.00
  60               13194.74      9.36      8.97
  101                  0.00      0.00      0.00
  103                130.65      0.21      0.01
  105               -415.58      1.18      0.50
  107                  1.07      0.00      0.00
  109                -69.15      0.11      0.00
  111               -416.25      1.18      0.50
  112                426.34      1.21      0.52
  113               -153.50      0.44      0.08
  114                 95.74      0.61      0.24
  115                -80.89      0.52      0.17
  116                -87.77      0.25      0.03
  117                619.71      1.76      1.04
  119               -681.12      1.93      1.24
  120               1129.06      3.20      3.17
  121               1005.07      2.85      2.56
  122                348.32      2.22      2.59
  123               9087.28      4.12      1.50
  125              11398.99      5.17      2.28
  129               1900.94      1.35      0.28
  131               1644.43      1.17      0.22
  133              -1338.84      1.37      0.36
  135                279.10      0.20      0.01
  137                 64.13      0.10      0.00
  145                214.97      1.37      1.06
  147                206.14      1.32      0.98
  149               -328.43      2.10      2.32
  151               -319.13      2.04      2.20
  153                137.07      0.39      0.06
  155                178.51      0.51      0.10
  159               -191.34      0.54      0.12
  161               -231.94      1.48      1.22
  163               -121.86      0.35      0.05
  169                188.12      1.20      0.83
  171                326.80      0.93      0.32
  173               7367.22      3.34      1.01
  175               7289.53      3.31      1.00
  177               7227.55      3.28      0.98
  179               6954.62      3.16      0.91
  180                  3.90      0.01      0.00
  181                  3.90      0.01      0.00
  183               6726.89      3.05      0.86
  185                -21.84      0.14      0.02
  186                269.33      1.72      1.61
  187               6097.35      2.77      0.71
  189               4329.82      1.97      0.38
  191              -1708.52      1.21      0.23
  193              -1825.90      1.29      0.26
  195                 -1.60      0.00      0.00
  197                -88.85      0.25      0.03
  199                133.99      0.38      0.06
  201                222.85      0.63      0.16
  202                492.02      3.14      4.91
  203                261.17      1.67      1.52
  204                492.02      1.40      0.68
  205                269.33      0.76      0.22
  207                127.18      0.36      0.06
  209                183.10      1.17      0.79
  211                607.70      1.72      1.01
  213                 86.22      0.24      0.03
  215                -19.76      0.06      0.00
  217               -283.95      0.81      0.25
  219               -249.23      0.71      0.19
  221                249.23      1.59      1.39
  223                -74.88      0.21      0.02
  225                -49.32      0.14      0.01
  229               4329.82      3.07      1.12
  231               3970.21      2.82      0.96
  233               3767.54      2.67      1.01
  235                180.63      0.51      0.11
  237                477.26      1.35      0.64
  238                606.28      1.72      1.00
  239                233.11      0.66      0.17
  240                606.28      1.72      1.00
  241                606.28      1.72      1.00
  243                604.97      0.97      0.25
  245                363.21      0.58      0.10
  247                270.80      0.43      0.06
  249                132.51      0.21      0.01
  251                 61.98      0.13      0.01
  257                 34.20      0.10      0.00
  261                 71.51      0.46      0.14
  263                 24.72      0.07      0.00
  269                228.76      0.65      0.16
  271                 49.48      0.32      0.07
  273                155.86      0.44      0.08
  275                 37.34      0.11      0.01
  277                  6.51      0.02      0.00
  281                 30.83      0.13      0.01
  283                 51.60      0.15      0.01
  285                -38.78      0.11      0.01
  287                -35.96      0.15      0.01
  289                201.74      0.82      0.32
  291                 81.78      0.33      0.06
  293                 23.42      0.15      0.02
  295                 12.82      0.04      0.00
  297                472.32      3.01      4.55
  299                227.01      1.45      1.17
  301                227.01      1.45      1.17
  303                245.30      1.57      1.35
  305                147.39      0.42      0.07
  307                392.69      1.11      0.45
  309                209.70      1.34      1.01
  311               -229.46      0.65      0.17
  313                491.92      1.40      0.68
  315              -1824.30      1.29      0.26
  317                 97.35      0.62      0.24
  319                 83.28      0.24      0.03
  321               6936.59      3.15      0.91
  323                135.75      0.39      0.06
  325                115.78      0.74      0.34
  329              13194.74      5.99      3.03
  330                  0.00      0.00      0.00
  333                 -0.00      0.00      0.00
  10                   0.00      0.00      0.00  Pump
  335              13194.74      0.00    -93.12  Pump
   
   
  Node Results at 24:00:00 hrs:
  --------------------------------------------------------
                     Demand      Head  Pressure  Chemical
  Node                  gpm        ft       psi      mg/L
  --------------------------------------------------------
  10                   0.00    147.36      0.16      0.00
  15                 621.42    127.28     41.29      0.00
  20                   0.00    159.75     13.32      0.00
  35                1630.89    148.09     58.75      0.00
  40                   0.00    148.02      6.98      0.00
  50                   0.00    140.42     10.37      0.00
  60                   0.00    209.10     90.60      0.00
  601                  0.00    303.08    131.32      0.00
  61                   0.00    303.08    131.32      0.00
  101                271.63    147.36     45.65      0.00
  103                190.48    147.34     45.21      0.00
  105                193.58    148.69     52.08      0.00
  107                 78.14    148.68     54.89      0.00
  109                330.90    147.34     55.05      0.00
  111                202.97    148.14     59.85      0.00
  113                 28.61    148.23     63.36      0.00
  115                 74.50    148.88     58.44      0.00
  117                168.33    151.90     59.93      0.00
  119                251.87    159.44     68.22      0.00
  120                  0.00    156.99     68.03      0.00
  121                 59.53    162.83     71.42      0.00
  123                  0.00    167.25     67.70      0.00
  125                 65.21    162.23     65.53      0.00
  127                 25.25    160.50     45.28      0.00
  129                  0.00    160.49     47.44      0.00
  131                 61.13    160.47     66.93      0.00
  139                  8.42    154.73     53.61      0.00
  141                 14.09    150.65     63.54      0.00
  143                  8.87    139.77     62.51      0.00
  145                 39.51    151.87     65.37      0.00
  147                 12.23    152.80     58.19      0.00
  149                 38.71    153.20     59.45      0.00
  151                206.61    157.15     53.58      0.00
  153                 63.16    157.24     39.45      0.00
  157                 74.06    157.08     62.38      0.00
  159                 59.09    153.83     64.06      0.00
  161                 22.59    151.64     63.97      0.00
  163                 13.47    151.19     63.35      0.00
  164                  0.00    151.19     63.35    120.00
  166                  3.72    151.19     66.38      0.00
  167                 20.82    149.40     66.90      0.00
  169                  0.00    149.40     66.90      0.00
  171                 56.26    148.36     66.02      0.00
  173                  0.00    148.34     66.01      0.00
  177                 83.18    148.09     60.70      0.00
  179                  0.00    148.09     60.70      0.00
  181                  0.00    148.10     60.71      0.00
  183                  0.00    148.09     59.40      0.00
  184                  0.00    146.72     56.64      0.00
  185                 36.68    147.31     56.90      0.00
  187                  0.00    147.94     58.69      0.00
  189                154.33    148.30     62.53      0.00
  191                117.12    148.13     53.35      0.00
  193                101.97    148.24     56.43      0.00
  195                  0.00    148.31     57.55      0.00
  197                 24.37    148.13     54.22      0.00
  199                170.63    143.04     62.84      0.00
  201                 63.79    142.30     61.62      0.00
  203               4295.54    142.15     60.73      0.00
  204                  0.00    147.72     54.91      0.00
  205                 93.46    142.98     52.85      0.00
  206                  0.00    141.79     61.00      0.00
  207                 99.23    142.17     57.70      0.00
  208                  0.00    141.36     54.32      0.00
  209                  1.24    140.60     61.79      0.00
  211                 12.40    140.35     57.78      0.00
  213                 19.93    140.27     57.74      0.00
  215                131.83    140.05     57.65      0.00
  217                 34.63    140.03     58.07      0.00
  219                 59.09    140.01     58.93      0.00
  225                 32.60    140.02     57.20      0.00
  229                 91.78    140.03     56.12      0.00
  231                 23.57    140.02     58.50      0.00
  237                 22.32    140.09     54.63      0.00
  239                 63.79    140.06     55.05      0.00
  241                  0.00    140.06     55.05      0.00
  243                  6.21    140.06     54.62      0.00
  247                100.64    140.06     52.89      0.00
  249                  0.00    140.06     52.89      0.00
  251                 34.55    140.06     47.69      0.00
  253                 77.96    140.03     45.08      0.00
  255                 57.76    140.09     49.00      0.00
  257                  0.00    153.87     59.31      0.00
  259                  0.00    153.43     55.65      0.00
  261                  0.00    151.85     65.80      0.00
  263                  0.00    151.69     65.73      0.00
  265                  0.00    149.97     64.98      0.00
  267                  0.00    148.32     55.17      0.00
  269                  0.00    148.73     64.44      0.00
  271                  0.00    148.17     61.60      0.00
  273                  0.00    142.98     58.49      0.00
  275                  0.00    142.30     57.33      0.00
  River           -13097.79    220.00      0.00      0.00  Reservoir
  Lake                 0.00    167.00      0.00      0.00  Reservoir
  1                  136.05    148.02      6.98      0.00  Tank
  2                 -216.04    140.42     10.37      0.00  Tank
  3                 2271.13    159.75     13.32      0.00  Tank
   
   
  Link Results at 24:00:00 hrs:
  ----------------------------------------------
                       Flow  Velocity  Headloss
  Link                  gpm       fps   /1000ft
  ----------------------------------------------
  20               -2271.13      0.09      0.00
  40                -136.05      0.01      0.00
  50                 216.04      0.01      0.00
  60               13097.79      9.29      8.85
  101                  0.00      0.00      0.00
  103                153.83      0.25      0.02
  105               -425.46      1.21      0.52
  107                 18.51      0.05      0.00
  109                -36.65      0.06      0.00
  111               -367.55      1.04      0.40
  112                474.48      1.35      0.64
  113               -123.93      0.35      0.05
  114                113.56      0.72      0.33
  115                -59.62      0.38      0.10
  116                -38.99      0.11      0.01
  117                637.55      1.81      1.10
  119               -722.16      2.05      1.39
  120               1161.60      3.30      3.34
  121               1039.64      2.95      2.72
  122                366.43      2.34      2.85
  123               9719.91      4.41      1.70
  125              13097.79      5.94      2.95
  129               2951.92      2.09      0.64
  131               2668.11      1.89      0.53
  133              -2271.13      2.32      0.96
  135                371.72      0.26      0.01
  137                 61.13      0.10      0.00
  145                310.59      1.98      2.09
  147                302.16      1.93      1.99
  149               -630.29      4.02      7.77
  151               -621.42      3.97      7.57
  153                342.21      0.97      0.35
  155                381.72      1.08      0.43
  159               -393.95      1.12      0.45
  161               -432.66      2.76      3.87
  163               -155.44      0.44      0.08
  169                218.60      1.40      1.09
  171                483.82      1.37      0.66
  173               7822.62      3.55      1.13
  175               7748.56      3.52      1.11
  177               7689.47      3.49      1.10
  179               7412.59      3.36      1.03
  180                  3.72      0.01      0.00
  181                  3.72      0.01      0.00
  183               7182.38      3.26      0.97
  185                -20.82      0.13      0.01
  186                320.56      2.05      2.22
  187               6545.29      2.97      0.82
  189               4731.39      2.15      0.45
  191              -1757.65      1.25      0.25
  193              -1630.89      1.16      0.21
  195                258.81      0.73      0.21
  197                175.63      0.50      0.10
  199                 39.58      0.11      0.01
  201               -136.05      0.39      0.06
  202                545.54      3.48      5.95
  203                261.66      1.67      1.53
  204                545.54      1.55      0.83
  205                320.56      0.91      0.31
  207                222.08      0.63      0.16
  209                174.04      1.11      0.72
  211                616.27      1.75      1.03
  213                146.51      0.42      0.07
  215                 66.23      0.19      0.02
  217               -260.11      0.74      0.21
  219               -254.29      0.72      0.20
  221                254.29      1.62      1.45
  223                  3.52      0.01      0.00
  225                 27.89      0.08      0.00
  229               4731.39      3.36      1.33
  231               4413.58      3.13      1.17
  233               4295.54      3.05      1.29
  235                147.19      0.42      0.07
  237                489.14      1.39      0.67
  238                554.28      1.57      0.85
  239                164.37      0.47      0.09
  240                554.28      1.57      0.85
  241                554.28      1.57      0.85
  243                553.03      0.88      0.21
  245                341.36      0.54      0.09
  247                258.16      0.41      0.05
  249                126.33      0.20      0.01
  251                 59.09      0.12      0.01
  257                 32.60      0.09      0.00
  261                 63.26      0.40      0.11
  263                 23.57      0.07      0.00
  269                199.28      0.57      0.13
  271                 52.08      0.33      0.08
  273                124.87      0.35      0.05
  275                 26.72      0.08      0.00
  277                  6.21      0.02      0.00
  281                 20.52      0.08      0.00
  283                 34.36      0.10      0.00
  285                -30.90      0.09      0.00
  287                -49.23      0.20      0.02
  289                216.04      0.88      0.36
  291                 77.96      0.32      0.05
  293                 31.09      0.20      0.03
  295                  3.46      0.01      0.00
  297                488.40      3.12      4.84
  299                234.67      1.50      1.25
  301                234.67      1.50      1.25
  303                253.73      1.62      1.44
  305                149.15      0.42      0.07
  307                402.88      1.14      0.47
  309                213.01      1.36      1.04
  311               -146.78      0.42      0.07
  313                484.22      1.37      0.66
  315              -1889.70      1.34      0.28
  317                110.12      0.70      0.31
  319                 37.07      0.11      0.01
  321               7395.40      3.36      1.02
  323                 54.25      0.15      0.01
  325                132.05      0.84      0.43
  329              13097.79      5.94      2.99
  330                  0.00      0.00      0.00
  333                 -0.00      0.00      0.00
  10                   0.00      0.00      0.00  Pump
  335              13097.79      0.00    -93.97  Pump
   
  Analysis ended Wed May 06 17:24:02 2020
