  Page 1                                    Wed May 06 17:24:17 2020

  ******************************************************************
  *                           E P A N E T                          *
  *                   Hydraulic and Water Quality                  *
  *                   Analysis for Pipe Networks                   *
  *                         Version 2.00.12                        *
  ******************************************************************
  
  Analysis begun Wed May 06 17:24:17 2020

   
  Hydraulic Status:
  -----------------------------------------------------------------------
     0:00:00: Balanced after 5 trials
     0:00:00: Reservoir River is emptying
     0:00:00: Reservoir Lake is closed
     0:00:00: Tank 1 is filling at 13.10 ft
     0:00:00: Tank 2 is emptying at 23.50 ft
     0:00:00: Tank 3 is filling at 29.00 ft
   
     0:05:00: Balanced after 2 trials
   
     0:10:00: Balanced after 2 trials
   
     0:15:00: Balanced after 2 trials
   
     0:20:00: Balanced after 2 trials
   
     0:25:00: Balanced after 2 trials
   
     0:30:00: Balanced after 2 trials
   
     0:35:00: Balanced after 2 trials
   
     0:40:00: Balanced after 2 trials
   
     0:45:00: Balanced after 2 trials
   
     0:50:00: Balanced after 2 trials
   
     0:55:00: Balanced after 2 trials
   
     1:00:00: Pump 10 changed by timer control
     1:00:00: Balanced after 7 trials
     1:00:00: Reservoir Lake is emptying
     1:00:00: Pump 10 changed from closed to open
   
     1:05:00: Balanced after 2 trials
   
     1:10:00: Balanced after 2 trials
   
     1:15:00: Balanced after 2 trials
   
     1:20:00: Balanced after 2 trials
   
     1:25:00: Balanced after 2 trials
   
     1:30:00: Balanced after 2 trials
   
     1:35:00: Balanced after 2 trials
   
     1:40:00: Balanced after 1 trials
   
     1:45:00: Balanced after 1 trials
   
     1:50:00: Balanced after 1 trials
   
     1:55:00: Balanced after 1 trials
   
     2:00:00: Balanced after 3 trials
   
     2:05:00: Balanced after 1 trials
   
     2:10:00: Balanced after 1 trials
   
     2:15:00: Balanced after 1 trials
   
     2:20:00: Balanced after 1 trials
   
     2:25:00: Balanced after 1 trials
   
     2:30:00: Balanced after 1 trials
   
     2:35:00: Balanced after 1 trials
   
     2:40:00: Balanced after 1 trials
   
     2:45:00: Balanced after 1 trials
   
     2:50:00: Balanced after 1 trials
     2:50:00: Tank 2 is filling at 22.11 ft
   
     2:55:00: Balanced after 1 trials
   
     3:00:00: Balanced after 2 trials
   
     3:05:00: Balanced after 1 trials
   
     3:10:00: Balanced after 1 trials
   
     3:15:00: Balanced after 1 trials
   
     3:20:00: Balanced after 1 trials
   
     3:25:00: Balanced after 1 trials
   
     3:30:00: Balanced after 1 trials
   
     3:35:00: Balanced after 1 trials
   
     3:40:00: Balanced after 1 trials
   
     3:45:00: Balanced after 1 trials
   
     3:50:00: Balanced after 1 trials
   
     3:55:00: Balanced after 1 trials
   
     4:00:00: Balanced after 3 trials
   
     4:05:00: Balanced after 1 trials
   
     4:10:00: Balanced after 1 trials
   
     4:15:00: Balanced after 1 trials
   
     4:17:22: Pump 335 changed by Tank 1 control
     4:17:22: Pipe 330 changed by Tank 1 control
     4:17:22: Balanced after 4 trials
     4:17:22: Pipe 330 changed from closed to open
     4:17:22: Pump 335 changed from open to closed
   
     4:20:00: Balanced after 1 trials
   
     4:25:00: Balanced after 2 trials
   
     4:30:00: Balanced after 2 trials
   
     4:35:00: Balanced after 2 trials
   
     4:40:00: Balanced after 2 trials
   
     4:45:00: Balanced after 2 trials
   
     4:50:00: Balanced after 2 trials
   
     4:55:00: Balanced after 2 trials
   
     5:00:00: Balanced after 3 trials
     5:00:00: Tank 3 is emptying at 34.39 ft
   
     5:05:00: Balanced after 2 trials
   
     5:10:00: Balanced after 2 trials
   
     5:15:00: Balanced after 2 trials
   
     5:20:00: Balanced after 2 trials
   
     5:25:00: Balanced after 2 trials
   
     5:30:00: Balanced after 2 trials
   
     5:35:00: Balanced after 2 trials
   
     5:40:00: Balanced after 2 trials
   
     5:45:00: Balanced after 2 trials
   
     5:50:00: Balanced after 2 trials
   
     5:55:00: Balanced after 2 trials
   
     6:00:00: Balanced after 3 trials
     6:00:00: Tank 3 is filling at 34.21 ft
   
     6:05:00: Balanced after 2 trials
   
     6:10:00: Balanced after 2 trials
   
     6:15:00: Balanced after 2 trials
   
     6:20:00: Balanced after 2 trials
   
     6:25:00: Balanced after 2 trials
   
     6:30:00: Balanced after 2 trials
   
     6:35:00: Balanced after 2 trials
   
     6:40:00: Balanced after 2 trials
   
     6:45:00: Balanced after 2 trials
   
     6:50:00: Balanced after 2 trials
   
     6:55:00: Balanced after 2 trials
   
     7:00:00: Balanced after 3 trials
   
     7:05:00: Balanced after 1 trials
   
     7:10:00: Balanced after 1 trials
   
     7:15:00: Balanced after 1 trials
   
     7:20:00: Balanced after 1 trials
   
     7:25:00: Balanced after 1 trials
   
     7:30:00: Balanced after 1 trials
   
     7:35:00: Balanced after 1 trials
   
     7:40:00: Balanced after 1 trials
   
     7:45:00: Balanced after 1 trials
   
     7:50:00: Balanced after 1 trials
   
     7:55:00: Balanced after 1 trials
   
     8:00:00: Balanced after 2 trials
   
     8:05:00: Balanced after 1 trials
   
     8:10:00: Balanced after 1 trials
   
     8:15:00: Balanced after 1 trials
   
     8:20:00: Balanced after 1 trials
   
     8:25:00: Balanced after 1 trials
   
     8:30:00: Balanced after 1 trials
   
     8:35:00: Balanced after 1 trials
   
     8:40:00: Balanced after 1 trials
   
     8:45:00: Balanced after 1 trials
   
     8:50:00: Balanced after 1 trials
   
     8:55:00: Balanced after 1 trials
   
     9:00:00: Balanced after 3 trials
     9:00:00: Tank 3 is emptying at 35.49 ft
   
     9:05:00: Balanced after 1 trials
   
     9:10:00: Balanced after 1 trials
   
     9:15:00: Balanced after 1 trials
   
     9:20:00: Balanced after 1 trials
     9:20:00: Tank 1 is emptying at 22.78 ft
   
     9:25:00: Balanced after 1 trials
   
     9:30:00: Balanced after 1 trials
   
     9:35:00: Balanced after 1 trials
   
     9:40:00: Balanced after 1 trials
   
     9:45:00: Balanced after 1 trials
   
     9:50:00: Balanced after 1 trials
   
     9:55:00: Balanced after 1 trials
   
    10:00:00: Balanced after 3 trials
    10:00:00: Tank 1 is filling at 22.76 ft
   
    10:05:00: Balanced after 2 trials
   
    10:10:00: Balanced after 2 trials
   
    10:15:00: Balanced after 2 trials
   
    10:20:00: Balanced after 2 trials
   
    10:25:00: Balanced after 2 trials
   
    10:30:00: Balanced after 2 trials
   
    10:35:00: Balanced after 2 trials
   
    10:40:00: Balanced after 2 trials
   
    10:45:00: Balanced after 2 trials
   
    10:50:00: Balanced after 2 trials
   
    10:55:00: Balanced after 2 trials
   
    11:00:00: Balanced after 3 trials
   
    11:05:00: Balanced after 2 trials
   
    11:10:00: Balanced after 2 trials
   
    11:15:00: Balanced after 2 trials
   
    11:20:00: Balanced after 2 trials
   
    11:25:00: Balanced after 2 trials
   
    11:30:00: Balanced after 2 trials
   
    11:35:00: Balanced after 2 trials
   
    11:40:00: Balanced after 2 trials
   
    11:45:00: Balanced after 2 trials
   
    11:50:00: Balanced after 2 trials
   
    11:55:00: Balanced after 2 trials
   
    12:00:00: Balanced after 3 trials
    12:00:00: Tank 1 is emptying at 23.46 ft
   
    12:05:00: Balanced after 1 trials
   
    12:10:00: Balanced after 1 trials
   
    12:15:00: Balanced after 1 trials
   
    12:20:00: Balanced after 1 trials
   
    12:25:00: Balanced after 1 trials
   
    12:30:00: Balanced after 1 trials
   
    12:35:00: Balanced after 1 trials
   
    12:40:00: Balanced after 1 trials
   
    12:45:00: Balanced after 1 trials
   
    12:50:00: Balanced after 1 trials
   
    12:55:00: Balanced after 1 trials
   
    13:00:00: Balanced after 3 trials
    13:00:00: Tank 2 is emptying at 29.65 ft
   
    13:05:00: Balanced after 1 trials
   
    13:10:00: Balanced after 1 trials
   
    13:15:00: Balanced after 1 trials
   
    13:20:00: Balanced after 1 trials
   
    13:25:00: Balanced after 1 trials
   
    13:30:00: Balanced after 1 trials
   
    13:35:00: Balanced after 1 trials
   
    13:40:00: Balanced after 1 trials
   
    13:45:00: Balanced after 1 trials
   
    13:50:00: Balanced after 1 trials
   
    13:55:00: Balanced after 1 trials
   
    14:00:00: Balanced after 4 trials
    14:00:00: Tank 1 is filling at 22.68 ft
    14:00:00: Tank 2 is filling at 28.88 ft
   
    14:05:00: Balanced after 2 trials
   
    14:10:00: Balanced after 2 trials
   
    14:15:00: Balanced after 2 trials
   
    14:20:00: Balanced after 2 trials
   
    14:25:00: Balanced after 2 trials
   
    14:30:00: Balanced after 1 trials
    14:30:00: Tank 1 is emptying at 22.70 ft
   
    14:35:00: Balanced after 1 trials
   
    14:40:00: Balanced after 1 trials
   
    14:45:00: Balanced after 1 trials
   
    14:50:00: Balanced after 1 trials
   
    14:55:00: Balanced after 1 trials
   
    15:00:00: Pump 10 changed by timer control
    15:00:00: Balanced after 4 trials
    15:00:00: Reservoir Lake is closed
    15:00:00: Tank 2 is emptying at 29.04 ft
    15:00:00: Pump 10 changed from open to closed
   
    15:05:00: Balanced after 2 trials
   
    15:10:00: Balanced after 2 trials
   
    15:15:00: Balanced after 2 trials
   
    15:20:00: Balanced after 2 trials
   
    15:25:00: Balanced after 2 trials
   
    15:30:00: Balanced after 2 trials
   
    15:35:00: Balanced after 2 trials
   
    15:40:00: Balanced after 2 trials
   
    15:45:00: Balanced after 2 trials
   
    15:50:00: Balanced after 2 trials
   
    15:55:00: Balanced after 2 trials
   
    16:00:00: Balanced after 4 trials
   
    16:05:00: Balanced after 2 trials
   
    16:10:00: Balanced after 2 trials
   
    16:15:00: Balanced after 2 trials
   
    16:20:00: Balanced after 2 trials
   
    16:25:00: Balanced after 2 trials
   
    16:30:00: Balanced after 2 trials
   
    16:35:00: Balanced after 1 trials
   
    16:40:00: Balanced after 1 trials
   
    16:45:00: Balanced after 1 trials
   
    16:50:00: Balanced after 1 trials
   
    16:55:00: Balanced after 1 trials
   
    17:00:00: Balanced after 3 trials
    17:00:00: Tank 2 is filling at 27.22 ft
   
    17:05:00: Balanced after 2 trials
   
    17:10:00: Balanced after 2 trials
   
    17:15:00: Balanced after 2 trials
   
    17:20:00: Balanced after 2 trials
   
    17:25:00: Balanced after 2 trials
   
    17:30:00: Balanced after 2 trials
   
    17:35:00: Balanced after 2 trials
   
    17:40:00: Balanced after 2 trials
   
    17:45:00: Balanced after 2 trials
   
    17:50:00: Balanced after 2 trials
   
    17:55:00: Balanced after 2 trials
   
    18:00:00: Balanced after 3 trials
    18:00:00: Tank 2 is emptying at 27.50 ft
   
    18:05:00: Balanced after 1 trials
   
    18:10:00: Balanced after 1 trials
   
    18:15:00: Balanced after 1 trials
   
    18:20:00: Balanced after 1 trials
   
    18:25:00: Balanced after 1 trials
   
    18:30:00: Balanced after 1 trials
   
    18:35:00: Balanced after 1 trials
   
    18:40:00: Balanced after 1 trials
   
    18:45:00: Balanced after 1 trials
   
    18:50:00: Balanced after 1 trials
   
    18:55:00: Balanced after 1 trials
   
    19:00:00: Balanced after 3 trials
   
    19:05:00: Balanced after 1 trials
   
    19:10:00: Balanced after 1 trials
   
    19:15:00: Balanced after 1 trials
   
    19:20:00: Balanced after 1 trials
   
    19:25:00: Balanced after 1 trials
   
    19:30:00: Balanced after 1 trials
   
    19:35:00: Balanced after 1 trials
   
    19:40:00: Balanced after 1 trials
   
    19:45:00: Balanced after 1 trials
   
    19:50:00: Balanced after 1 trials
   
    19:55:00: Balanced after 1 trials
   
    20:00:00: Balanced after 3 trials
   
    20:05:00: Balanced after 1 trials
   
    20:10:00: Balanced after 1 trials
   
    20:15:00: Balanced after 1 trials
   
    20:20:00: Balanced after 1 trials
   
    20:25:00: Balanced after 1 trials
   
    20:30:00: Balanced after 1 trials
   
    20:35:00: Balanced after 1 trials
   
    20:40:00: Balanced after 1 trials
   
    20:45:00: Balanced after 1 trials
   
    20:50:00: Balanced after 1 trials
   
    20:55:00: Balanced after 1 trials
   
    21:00:00: Balanced after 3 trials
   
    21:05:00: Balanced after 1 trials
   
    21:08:16: Pump 335 changed by Tank 1 control
    21:08:16: Pipe 330 changed by Tank 1 control
    21:08:16: Balanced after 5 trials
    21:08:16: Tank 1 is filling at 17.10 ft
    21:08:16: Tank 3 is filling at 29.99 ft
    21:08:16: Pipe 330 changed from open to closed
    21:08:16: Pump 335 changed from closed to open
   
    21:10:00: Balanced after 1 trials
   
    21:15:00: Balanced after 2 trials
   
    21:20:00: Balanced after 2 trials
   
    21:25:00: Balanced after 2 trials
   
    21:30:00: Balanced after 2 trials
   
    21:35:00: Balanced after 2 trials
   
    21:40:00: Balanced after 2 trials
   
    21:45:00: Balanced after 2 trials
   
    21:50:00: Balanced after 2 trials
   
    21:55:00: Balanced after 2 trials
   
    22:00:00: Balanced after 3 trials
    22:00:00: Tank 1 is emptying at 17.48 ft
   
    22:05:00: Balanced after 2 trials
   
    22:10:00: Balanced after 2 trials
   
    22:15:00: Balanced after 2 trials
   
    22:20:00: Balanced after 2 trials
   
    22:25:00: Balanced after 2 trials
   
    22:30:00: Balanced after 2 trials
   
    22:35:00: Balanced after 2 trials
   
    22:40:00: Balanced after 2 trials
   
    22:45:00: Balanced after 2 trials
   
    22:50:00: Balanced after 2 trials
   
    22:55:00: Balanced after 2 trials
   
    23:00:00: Balanced after 3 trials
   
    23:05:00: Balanced after 2 trials
   
    23:10:00: Balanced after 2 trials
   
    23:15:00: Balanced after 2 trials
   
    23:20:00: Balanced after 2 trials
   
    23:25:00: Balanced after 2 trials
   
    23:30:00: Balanced after 2 trials
   
    23:35:00: Balanced after 2 trials
   
    23:40:00: Balanced after 2 trials
   
    23:45:00: Balanced after 2 trials
   
    23:50:00: Balanced after 2 trials
   
    23:55:00: Balanced after 2 trials
   
    24:00:00: Balanced after 4 trials
    24:00:00: Tank 1 is filling at 15.99 ft
   
   
  Node Results at 0:00:00 hrs:
  --------------------------------------------------------
                     Demand      Head  Pressure  Chemical
  Node                  gpm        ft       psi      mg/L
  --------------------------------------------------------
  10                   0.00    146.46     -0.23      0.00
  15                 526.74    134.45     44.39      0.00
  20                   0.00    158.00     12.57      0.00
  35                1870.58    145.99     57.84      0.00
  40                   0.00    145.00      5.68      0.00
  50                   0.00    140.00     10.18      0.00
  60                   0.00    209.03     90.57      0.00
  601                  0.00    302.57    131.10      0.00
  61                   0.00    302.57    131.10      0.00
  101                226.04    146.46     45.26      0.00
  103                158.51    146.43     44.82      0.00
  105                161.09    147.70     51.65      0.00
  107                 65.02    147.68     54.46      0.00
  109                275.37    146.42     54.65      0.00
  111                168.91    146.81     59.28      0.00
  113                 23.81    146.82     62.75      0.00
  115                 62.00    147.69     57.93      0.00
  117                140.07    150.77     59.44      0.00
  119                209.59    157.96     67.58      0.00
  120                  0.00    155.64     67.44      0.00
  121                 49.54    161.34     70.78      0.00
  123                  0.00    165.79     67.07      0.00
  125                 54.26    160.72     64.87      0.00
  127                 21.02    158.86     44.57      0.00
  129                  0.00    158.85     46.73      0.00
  131                 50.87    158.84     66.22      0.00
  139                  7.01    154.64     53.57      0.00
  141                 11.72    151.65     63.98      0.00
  143                  7.38    143.64     64.19      0.00
  145                 32.88    152.55     65.67      0.00
  147                 10.17    153.24     58.38      0.00
  149                 32.21    153.53     59.59      0.00
  151                171.93    156.42     53.26      0.00
  153                 52.56    156.51     39.13      0.00
  157                 61.63    155.51     61.71      0.00
  159                 49.17    152.14     63.32      0.00
  161                 18.80    149.85     63.19      0.00
  163                 11.21    149.38     62.56      0.00
  164                  0.00    149.38     62.56      0.00
  166                  3.09    149.38     65.59      0.00
  167                 17.33    147.49     66.07      0.00
  169                  0.00    147.49     66.07      0.00
  171                 46.81    146.38     65.16      0.00
  173                  0.00    146.36     65.15      0.00
  177                 69.22    145.98     59.79      0.00
  179                  0.00    145.97     59.78      0.00
  181                  0.00    146.00     59.80      0.00
  183                  0.00    145.99     58.49      0.00
  184                  0.00    144.92     55.86      0.00
  185                 30.52    145.50     56.11      0.00
  187                  0.00    146.29     57.97      0.00
  189                128.42    146.55     61.77      0.00
  191                 97.46    146.67     52.72      0.00
  193                 84.86    146.75     55.79      0.00
  195                  0.00    146.82     56.90      0.00
  197                 20.28    146.70     53.60      0.00
  199                141.99    141.32     62.10      0.00
  201                 53.09    140.61     60.88      0.00
  203               4382.04    140.45     59.99      0.00
  204                  0.00    146.01     54.17      0.00
  205                 77.78    141.30     52.13      0.00
  206                  0.00    140.40     60.40      0.00
  207                 82.57    140.61     57.03      0.00
  208                  0.00    140.16     53.80      0.00
  209                  1.04    139.75     61.42      0.00
  211                 10.32    139.61     57.46      0.00
  213                 16.59    139.56     57.44      0.00
  215                109.71    139.40     57.37      0.00
  217                 28.82    139.39     57.80      0.00
  219                 49.17    139.38     58.66      0.00
  225                 27.13    139.38     56.93      0.00
  229                 76.37    139.45     55.87      0.00
  231                 19.61    139.45     58.26      0.00
  237                 18.58    139.52     54.39      0.00
  239                 53.09    139.51     54.82      0.00
  241                  0.00    139.51     54.82      0.00
  243                  5.16    139.51     54.38      0.00
  247                 83.75    139.51     52.65      0.00
  249                  0.00    139.51     52.65      0.00
  251                 28.75    139.52     47.45      0.00
  253                 64.88    139.55     44.87      0.00
  255                 48.06    139.59     48.79      0.00
  257                  0.00    152.65     58.78      0.00
  259                  0.00    152.24     55.13      0.00
  261                  0.00    150.72     65.31      0.00
  263                  0.00    150.57     65.24      0.00
  265                  0.00    148.09     64.17      0.00
  267                  0.00    146.75     54.49      0.00
  269                  0.00    146.89     63.65      0.00
  271                  0.00    146.11     60.71      0.00
  273                  0.00    141.30     57.76      0.00
  275                  0.00    140.61     56.60      0.00
  River           -13146.86    220.00      0.00      0.00  Reservoir
  Lake                 0.00    167.00      0.00      0.00  Reservoir
  1                  542.53    145.00      5.68      0.00  Tank
  2                 -241.21    140.00     10.18      0.00  Tank
  3                 2438.94    158.00     12.57      0.00  Tank
   
   
  Link Results at 0:00:00 hrs:
  ----------------------------------------------
                       Flow  Velocity  Headloss
  Link                  gpm       fps   /1000ft
  ----------------------------------------------
  20               -2438.94      0.10      0.00
  40                -542.53      0.02      0.00
  50                 241.21      0.01      0.00
  60               13146.86      9.32      8.91
  101                  0.00      0.00      0.00
  103                183.46      0.29      0.03
  105               -409.50      1.16      0.49
  107                 51.85      0.15      0.01
  109                 24.96      0.04      0.00
  111               -250.41      0.71      0.20
  112                520.46      1.48      0.76
  113                 -6.56      0.02      0.00
  114                133.48      0.85      0.44
  115                -13.17      0.08      0.01
  116                103.10      0.29      0.04
  117                622.44      1.77      1.05
  119               -729.11      2.07      1.41
  120               1129.65      3.20      3.18
  121               1014.86      2.88      2.60
  122                361.98      2.31      2.78
  123               9708.30      4.41      1.69
  125              13146.86      5.97      2.97
  129               3027.04      2.15      0.67
  131               2773.22      1.97      0.57
  133              -2438.94      2.49      1.10
  135                313.27      0.22      0.01
  137                 50.87      0.08      0.00
  145                262.39      1.67      1.53
  147                255.38      1.63      1.46
  149               -534.12      3.41      5.72
  151               -526.74      3.36      5.57
  153                290.45      0.82      0.26
  155                323.33      0.92      0.31
  159               -333.51      0.95      0.33
  161               -365.72      2.33      2.84
  163               -146.99      0.42      0.07
  169                199.56      1.27      0.92
  171                390.66      1.11      0.44
  173               7978.40      3.62      1.18
  175               7916.77      3.59      1.16
  177               7867.60      3.57      1.15
  179               7607.14      3.45      1.08
  180                  3.09      0.01      0.00
  181                  3.09      0.01      0.00
  183               7401.64      3.36      1.02
  185                -17.33      0.11      0.01
  186                362.37      2.31      2.79
  187               6800.34      3.09      0.88
  189               4600.77      2.09      0.42
  191              -2152.76      1.53      0.36
  193              -1870.58      1.33      0.28
  195                440.85      1.25      0.56
  197                371.63      1.05      0.41
  199               -170.90      0.48      0.10
  201               -542.53      1.54      0.82
  202                536.51      3.42      5.77
  203                204.67      1.31      0.97
  204                536.51      1.52      0.80
  205                362.37      1.03      0.39
  207                375.56      1.07      0.41
  209                146.50      0.94      0.52
  211                583.97      1.66      0.94
  213                215.87      0.61      0.15
  215                225.19      0.64      0.16
  217               -225.91      0.64      0.16
  219               -241.66      0.69      0.18
  221                241.66      1.54      1.32
  223                 87.43      0.25      0.03
  225                107.71      0.31      0.04
  229               4600.77      3.26      1.26
  231               4358.11      3.09      1.14
  233               4382.04      3.11      1.34
  235                100.67      0.29      0.04
  237                449.31      1.27      0.58
  238                399.81      1.13      0.46
  239                 33.08      0.09      0.00
  240                399.81      1.13      0.46
  241                399.81      1.13      0.46
  243                398.78      0.64      0.11
  245                272.49      0.43      0.06
  247                214.83      0.34      0.04
  249                105.12      0.17      0.01
  251                 49.17      0.10      0.00
  257                 27.13      0.08      0.00
  261                 41.08      0.26      0.05
  263                 19.61      0.06      0.00
  269                115.97      0.33      0.05
  271                 54.91      0.35      0.08
  273                 42.48      0.12      0.01
  275                 -0.74      0.00      0.00
  277                  5.16      0.01      0.00
  281                 -5.90      0.02      0.00
  283                 -9.87      0.03      0.00
  285                -10.44      0.03      0.00
  287                -79.22      0.32      0.06
  289                241.21      0.99      0.44
  291                 64.88      0.27      0.04
  293                 49.06      0.31      0.07
  295                -20.30      0.06      0.00
  297                476.77      3.04      4.63
  299                229.08      1.46      1.19
  301                229.08      1.46      1.19
  303                247.69      1.58      1.38
  305                145.68      0.41      0.07
  307                393.36      1.12      0.45
  309                191.19      1.22      0.85
  311                 33.99      0.10      0.00
  313                425.30      1.21      0.52
  315              -2311.43      1.64      0.41
  317                110.09      0.70      0.31
  319                 -9.42      0.03      0.00
  321               7592.84      3.45      1.07
  323                -77.01      0.22      0.02
  325                158.67      1.01      0.60
  329              13146.86      5.97      3.01
  330                  0.00      0.00      0.00
  333                 -0.00      0.00      0.00
  10                   0.00      0.00      0.00  Pump
  335              13146.86      0.00    -93.54  Pump
   
   
  Node Results at 0:05:00 hrs:
  --------------------------------------------------------
                     Demand      Head  Pressure  Chemical
  Node                  gpm        ft       psi      mg/L
  --------------------------------------------------------
  10                   0.00    146.51     -0.21      0.00
  15                 526.74    134.51     44.42      0.00
  20                   0.00    158.08     12.60      0.00
  35                1870.58    146.04     57.86      0.00
  40                   0.00    145.06      5.70      0.00
  50                   0.00    139.92     10.15      0.00
  60                   0.00    209.03     90.57      0.00
  601                  0.00    302.59    131.11      0.00
  61                   0.00    302.59    131.11      0.00
  101                226.04    146.51     45.29      0.00
  103                158.51    146.48     44.84      0.00
  105                161.09    147.75     51.67      0.00
  107                 65.02    147.73     54.48      0.00
  109                275.37    146.47     54.67      0.00
  111                168.91    146.86     59.30      0.00
  113                 23.81    146.86     62.77      0.00
  115                 62.00    147.74     57.95      0.00
  117                140.07    150.82     59.46      0.00
  119                209.59    158.02     67.60      0.00
  120                  0.00    155.70     67.46      0.00
  121                 49.54    161.41     70.80      0.00
  123                  0.00    165.85     67.10      0.00
  125                 54.26    160.78     64.90      0.00
  127                 21.02    158.93     44.60      0.00
  129                  0.00    158.92     46.76      0.00
  131                 50.87    158.91     66.26      0.00
  139                  7.01    154.70     53.60      0.00
  141                 11.72    151.71     64.00      0.00
  143                  7.38    143.71     64.22      0.00
  145                 32.88    152.61     65.69      0.00
  147                 10.17    153.30     58.41      0.00
  149                 32.21    153.59     59.62      0.00
  151                171.93    156.48     53.29      0.00
  153                 52.56    156.57     39.16      0.00
  157                 61.63    155.57     61.73      0.00
  159                 49.17    152.19     63.34      0.00
  161                 18.80    149.90     63.22      0.00
  163                 11.21    149.43     62.58      0.00
  164                  0.00    149.43     62.58      0.00
  166                  3.09    149.43     65.62      0.00
  167                 17.33    147.54     66.09      0.00
  169                  0.00    147.54     66.09      0.00
  171                 46.81    146.43     65.18      0.00
  173                  0.00    146.40     65.17      0.00
  177                 69.22    146.03     59.81      0.00
  179                  0.00    146.02     59.80      0.00
  181                  0.00    146.05     59.82      0.00
  183                  0.00    146.04     58.51      0.00
  184                  0.00    144.96     55.88      0.00
  185                 30.52    145.54     56.13      0.00
  187                  0.00    146.34     57.99      0.00
  189                128.42    146.60     61.79      0.00
  191                 97.46    146.72     52.74      0.00
  193                 84.86    146.80     55.81      0.00
  195                  0.00    146.87     56.92      0.00
  197                 20.28    146.75     53.62      0.00
  199                141.99    141.35     62.11      0.00
  201                 53.09    140.63     60.89      0.00
  203               4382.04    140.47     60.00      0.00
  204                  0.00    146.06     54.19      0.00
  205                 77.78    141.33     52.14      0.00
  206                  0.00    140.41     60.41      0.00
  207                 82.57    140.63     57.03      0.00
  208                  0.00    140.16     53.80      0.00
  209                  1.04    139.73     61.41      0.00
  211                 10.32    139.59     57.45      0.00
  213                 16.59    139.53     57.43      0.00
  215                109.71    139.38     57.36      0.00
  217                 28.82    139.36     57.79      0.00
  219                 49.17    139.35     58.65      0.00
  225                 27.13    139.36     56.92      0.00
  229                 76.37    139.41     55.86      0.00
  231                 19.61    139.41     58.24      0.00
  237                 18.58    139.48     54.37      0.00
  239                 53.09    139.47     54.80      0.00
  241                  0.00    139.47     54.80      0.00
  243                  5.16    139.47     54.37      0.00
  247                 83.75    139.47     52.63      0.00
  249                  0.00    139.47     52.63      0.00
  251                 28.75    139.47     47.44      0.00
  253                 64.88    139.50     44.85      0.00
  255                 48.06    139.54     48.76      0.00
  257                  0.00    152.71     58.80      0.00
  259                  0.00    152.29     55.15      0.00
  261                  0.00    150.78     65.33      0.00
  263                  0.00    150.62     65.26      0.00
  265                  0.00    148.14     64.19      0.00
  267                  0.00    146.80     54.51      0.00
  269                  0.00    146.93     63.67      0.00
  271                  0.00    146.15     60.73      0.00
  273                  0.00    141.33     57.77      0.00
  275                  0.00    140.64     56.61      0.00
  River           -13144.84    220.00      0.00      0.00  Reservoir
  Lake                 0.00    167.00      0.00      0.00  Reservoir
  1                  537.64    145.06      5.70      0.00  Tank
  2                 -231.24    139.92     10.15      0.00  Tank
  3                 2431.82    158.08     12.60      0.00  Tank
   
   
  Link Results at 0:05:00 hrs:
  ----------------------------------------------
                       Flow  Velocity  Headloss
  Link                  gpm       fps   /1000ft
  ----------------------------------------------
  20               -2431.82      0.10      0.00
  40                -537.64      0.02      0.00
  50                 231.24      0.01      0.00
  60               13144.84      9.32      8.91
  101                  0.00      0.00      0.00
  103                183.62      0.29      0.03
  105               -409.66      1.16      0.49
  107                 51.96      0.15      0.01
  109                 25.11      0.04      0.00
  111               -250.25      0.71      0.19
  112                520.84      1.48      0.76
  113                 -6.25      0.02      0.00
  114                133.58      0.85      0.44
  115                -13.06      0.08      0.01
  116                103.51      0.29      0.04
  117                622.72      1.77      1.05
  119               -729.47      2.07      1.41
  120               1130.11      3.21      3.18
  121               1015.29      2.88      2.61
  122                362.15      2.31      2.78
  123               9712.97      4.41      1.69
  125              13144.84      5.97      2.97
  129               3020.18      2.14      0.67
  131               2766.26      1.96      0.57
  133              -2431.82      2.48      1.09
  135                313.43      0.22      0.01
  137                 50.87      0.08      0.00
  145                262.55      1.68      1.53
  147                255.54      1.63      1.46
  149               -534.12      3.41      5.72
  151               -526.74      3.36      5.57
  153                290.29      0.82      0.26
  155                323.17      0.92      0.31
  159               -333.35      0.95      0.33
  161               -365.56      2.33      2.83
  163               -147.09      0.42      0.07
  169                199.65      1.27      0.92
  171                390.40      1.11      0.44
  173               7982.86      3.62      1.18
  175               7921.23      3.60      1.16
  177               7872.06      3.57      1.15
  179               7611.54      3.45      1.08
  180                  3.09      0.01      0.00
  181                  3.09      0.01      0.00
  183               7406.06      3.36      1.02
  185                -17.33      0.11      0.01
  186                362.92      2.32      2.80
  187               6804.84      3.09      0.88
  189               4609.55      2.09      0.43
  191              -2148.48      1.52      0.36
  193              -1870.58      1.33      0.28
  195                436.63      1.24      0.55
  197                367.41      1.04      0.40
  199               -170.24      0.48      0.10
  201               -537.64      1.53      0.80
  202                537.71      3.43      5.79
  203                205.31      1.31      0.97
  204                537.71      1.53      0.80
  205                362.92      1.03      0.39
  207                375.55      1.07      0.41
  209                146.69      0.94      0.52
  211                583.89      1.66      0.94
  213                216.23      0.61      0.15
  215                225.51      0.64      0.16
  217               -226.04      0.64      0.16
  219               -241.72      0.69      0.18
  221                241.72      1.54      1.32
  223                 87.65      0.25      0.03
  225                107.93      0.31      0.04
  229               4609.55      3.27      1.26
  231               4365.72      3.10      1.14
  233               4382.04      3.11      1.34
  235                101.84      0.29      0.04
  237                451.43      1.28      0.58
  238                409.79      1.16      0.49
  239                 40.94      0.12      0.01
  240                409.79      1.16      0.49
  241                409.79      1.16      0.49
  243                408.76      0.65      0.12
  245                274.24      0.44      0.06
  247                214.83      0.34      0.04
  249                105.12      0.17      0.01
  251                 49.17      0.10      0.00
  257                 27.13      0.08      0.00
  261                 42.82      0.27      0.05
  263                 19.61      0.06      0.00
  269                124.20      0.35      0.05
  271                 53.17      0.34      0.08
  273                 52.46      0.15      0.01
  275                  3.11      0.01      0.00
  277                  5.16      0.01      0.00
  281                 -2.05      0.01      0.00
  283                 -3.74      0.01      0.00
  285                -12.85      0.04      0.00
  287                -72.96      0.30      0.05
  289                231.24      0.94      0.41
  291                 64.88      0.27      0.04
  293                 45.34      0.29      0.06
  295                -16.59      0.05      0.00
  297                476.97      3.04      4.64
  299                229.18      1.46      1.19
  301                229.18      1.46      1.19
  303                247.79      1.58      1.38
  305                145.75      0.41      0.07
  307                393.54      1.12      0.45
  309                191.17      1.22      0.85
  311                 34.33      0.10      0.00
  313                425.16      1.21      0.52
  315              -2307.21      1.64      0.41
  317                110.34      0.70      0.31
  319                 -8.50      0.02      0.00
  321               7597.23      3.45      1.07
  323                -69.41      0.20      0.02
  325                158.73      1.01      0.60
  329              13144.84      5.97      3.01
  330                  0.00      0.00      0.00
  333                 -0.00      0.00      0.00
  10                   0.00      0.00      0.00  Pump
  335              13144.84      0.00    -93.56  Pump
   
   
  Node Results at 0:10:00 hrs:
  --------------------------------------------------------
                     Demand      Head  Pressure  Chemical
  Node                  gpm        ft       psi      mg/L
  --------------------------------------------------------
  10                   0.00    146.56     -0.19      0.00
  15                 526.74    134.58     44.45      0.00
  20                   0.00    158.15     12.63      0.00
  35                1870.58    146.09     57.88      0.00
  40                   0.00    145.13      5.73      0.00
  50                   0.00    139.84     10.11      0.00
  60                   0.00    209.03     90.57      0.00
  601                  0.00    302.61    131.12      0.00
  61                   0.00    302.61    131.12      0.00
  101                226.04    146.56     45.31      0.00
  103                158.51    146.53     44.86      0.00
  105                161.09    147.80     51.69      0.00
  107                 65.02    147.78     54.50      0.00
  109                275.37    146.52     54.69      0.00
  111                168.91    146.91     59.32      0.00
  113                 23.81    146.91     62.79      0.00
  115                 62.00    147.79     57.97      0.00
  117                140.07    150.88     59.48      0.00
  119                209.59    158.08     67.63      0.00
  120                  0.00    155.75     67.49      0.00
  121                 49.54    161.47     70.83      0.00
  123                  0.00    165.91     67.12      0.00
  125                 54.26    160.85     64.93      0.00
  127                 21.02    159.01     44.63      0.00
  129                  0.00    159.00     46.80      0.00
  131                 50.87    158.98     66.29      0.00
  139                  7.01    154.77     53.63      0.00
  141                 11.72    151.78     64.03      0.00
  143                  7.38    143.77     64.25      0.00
  145                 32.88    152.68     65.72      0.00
  147                 10.17    153.36     58.44      0.00
  149                 32.21    153.65     59.65      0.00
  151                171.93    156.54     53.31      0.00
  153                 52.56    156.63     39.18      0.00
  157                 61.63    155.62     61.76      0.00
  159                 49.17    152.24     63.37      0.00
  161                 18.80    149.95     63.24      0.00
  163                 11.21    149.48     62.60      0.00
  164                  0.00    149.48     62.60      0.00
  166                  3.09    149.48     65.64      0.00
  167                 17.33    147.58     66.11      0.00
  169                  0.00    147.59     66.12      0.00
  171                 46.81    146.47     65.20      0.00
  173                  0.00    146.45     65.19      0.00
  177                 69.22    146.08     59.83      0.00
  179                  0.00    146.07     59.82      0.00
  181                  0.00    146.10     59.84      0.00
  183                  0.00    146.09     58.53      0.00
  184                  0.00    145.01     55.90      0.00
  185                 30.52    145.59     56.15      0.00
  187                  0.00    146.38     58.01      0.00
  189                128.42    146.65     61.81      0.00
  191                 97.46    146.77     52.76      0.00
  193                 84.86    146.85     55.83      0.00
  195                  0.00    146.92     56.94      0.00
  197                 20.28    146.80     53.64      0.00
  199                141.99    141.38     62.13      0.00
  201                 53.09    140.66     60.90      0.00
  203               4382.04    140.50     60.01      0.00
  204                  0.00    146.10     54.21      0.00
  205                 77.78    141.35     52.15      0.00
  206                  0.00    140.42     60.41      0.00
  207                 82.57    140.65     57.04      0.00
  208                  0.00    140.16     53.80      0.00
  209                  1.04    139.71     61.41      0.00
  211                 10.32    139.56     57.44      0.00
  213                 16.59    139.51     57.42      0.00
  215                109.71    139.35     57.35      0.00
  217                 28.82    139.34     57.77      0.00
  219                 49.17    139.33     58.64      0.00
  225                 27.13    139.33     56.91      0.00
  229                 76.37    139.38     55.84      0.00
  231                 19.61    139.38     58.23      0.00
  237                 18.58    139.44     54.35      0.00
  239                 53.09    139.43     54.78      0.00
  241                  0.00    139.43     54.78      0.00
  243                  5.16    139.43     54.35      0.00
  247                 83.75    139.43     52.62      0.00
  249                  0.00    139.43     52.62      0.00
  251                 28.75    139.43     47.42      0.00
  253                 64.88    139.45     44.82      0.00
  255                 48.06    139.49     48.74      0.00
  257                  0.00    152.76     58.83      0.00
  259                  0.00    152.34     55.18      0.00
  261                  0.00    150.83     65.35      0.00
  263                  0.00    150.67     65.29      0.00
  265                  0.00    148.19     64.21      0.00
  267                  0.00    146.84     54.53      0.00
  269                  0.00    146.98     63.69      0.00
  271                  0.00    146.20     60.75      0.00
  273                  0.00    141.35     57.78      0.00
  275                  0.00    140.66     56.62      0.00
  River           -13142.81    220.00      0.00      0.00  Reservoir
  Lake                 0.00    167.00      0.00      0.00  Reservoir
  1                  532.95    145.13      5.73      0.00  Tank
  2                 -221.53    139.84     10.11      0.00  Tank
  3                 2424.78    158.15     12.63      0.00  Tank
   
   
  Link Results at 0:10:00 hrs:
  ----------------------------------------------
                       Flow  Velocity  Headloss
  Link                  gpm       fps   /1000ft
  ----------------------------------------------
  20               -2424.78      0.10      0.00
  40                -532.95      0.02      0.00
  50                 221.53      0.01      0.00
  60               13142.81      9.32      8.91
  101                  0.00      0.00      0.00
  103                183.78      0.29      0.03
  105               -409.82      1.16      0.49
  107                 52.08      0.15      0.01
  109                 25.27      0.04      0.00
  111               -250.10      0.71      0.19
  112                521.21      1.48      0.76
  113                 -5.95      0.02      0.00
  114                133.67      0.85      0.44
  115                -12.94      0.08      0.01
  116                103.91      0.29      0.04
  117                622.99      1.77      1.06
  119               -729.82      2.07      1.41
  120               1130.57      3.21      3.18
  121               1015.71      2.88      2.61
  122                362.31      2.31      2.79
  123               9717.57      4.41      1.69
  125              13142.81      5.97      2.96
  129               3013.39      2.14      0.67
  131               2759.38      1.96      0.57
  133              -2424.78      2.48      1.09
  135                313.58      0.22      0.01
  137                 50.87      0.08      0.00
  145                262.71      1.68      1.54
  147                255.70      1.63      1.46
  149               -534.12      3.41      5.72
  151               -526.74      3.36      5.57
  153                290.14      0.82      0.26
  155                323.02      0.92      0.31
  159               -333.19      0.95      0.33
  161               -365.40      2.33      2.83
  163               -147.18      0.42      0.07
  169                199.74      1.27      0.92
  171                390.15      1.11      0.44
  173               7987.25      3.63      1.18
  175               7925.62      3.60      1.16
  177               7876.45      3.58      1.15
  179               7615.86      3.46      1.08
  180                  3.09      0.01      0.00
  181                  3.09      0.01      0.00
  183               7410.40      3.36      1.03
  185                -17.33      0.11      0.01
  186                363.46      2.32      2.80
  187               6809.26      3.09      0.88
  189               4618.09      2.10      0.43
  191              -2144.36      1.52      0.36
  193              -1870.58      1.33      0.28
  195                432.57      1.23      0.54
  197                363.34      1.03      0.39
  199               -169.61      0.48      0.09
  201               -532.95      1.51      0.79
  202                538.88      3.44      5.81
  203                205.94      1.31      0.98
  204                538.88      1.53      0.81
  205                363.46      1.03      0.39
  207                375.55      1.07      0.41
  209                146.88      0.94      0.52
  211                583.81      1.66      0.94
  213                216.58      0.61      0.15
  215                225.82      0.64      0.16
  217               -226.17      0.64      0.16
  219               -241.79      0.69      0.18
  221                241.79      1.54      1.32
  223                 87.87      0.25      0.03
  225                108.15      0.31      0.04
  229               4618.09      3.28      1.27
  231               4373.04      3.10      1.15
  233               4382.04      3.11      1.34
  235                103.06      0.29      0.04
  237                453.59      1.29      0.59
  238                419.50      1.19      0.51
  239                 48.48      0.14      0.01
  240                419.50      1.19      0.51
  241                419.50      1.19      0.51
  243                418.46      0.67      0.12
  245                275.99      0.44      0.06
  247                214.83      0.34      0.04
  249                105.12      0.17      0.01
  251                 49.17      0.10      0.00
  257                 27.13      0.08      0.00
  261                 44.57      0.28      0.06
  263                 19.61      0.06      0.00
  269                132.16      0.37      0.06
  271                 51.42      0.33      0.07
  273                 62.16      0.18      0.01
  275                  6.73      0.02      0.00
  277                  5.16      0.01      0.00
  281                  1.57      0.01      0.00
  283                  2.35      0.01      0.00
  285                -15.31      0.04      0.00
  287                -66.87      0.27      0.04
  289                221.53      0.90      0.38
  291                 64.88      0.27      0.04
  293                 41.72      0.27      0.05
  295                -12.97      0.04      0.00
  297                477.17      3.05      4.64
  299                229.27      1.46      1.19
  301                229.27      1.46      1.19
  303                247.89      1.58      1.38
  305                145.82      0.41      0.07
  307                393.71      1.12      0.45
  309                191.16      1.22      0.85
  311                 34.67      0.10      0.01
  313                425.02      1.21      0.52
  315              -2303.15      1.63      0.41
  317                110.57      0.71      0.31
  319                 -7.51      0.02      0.00
  321               7601.56      3.45      1.08
  323                -62.09      0.18      0.01
  325                158.79      1.01      0.60
  329              13142.81      5.97      3.00
  330                  0.00      0.00      0.00
  333                 -0.00      0.00      0.00
  10                   0.00      0.00      0.00  Pump
  335              13142.81      0.00    -93.58  Pump
   
   
  Node Results at 0:15:00 hrs:
  --------------------------------------------------------
                     Demand      Head  Pressure  Chemical
  Node                  gpm        ft       psi      mg/L
  --------------------------------------------------------
  10                   0.00    146.61     -0.17      0.00
  15                 526.74    134.64     44.47      0.00
  20                   0.00    158.23     12.67      0.00
  35                1870.58    146.13     57.90      0.00
  40                   0.00    145.19      5.76      0.00
  50                   0.00    139.76     10.08      0.00
  60                   0.00    209.04     90.58      0.00
  601                  0.00    302.63    131.13      0.00
  61                   0.00    302.63    131.13      0.00
  101                226.04    146.61     45.33      0.00
  103                158.51    146.58     44.88      0.00
  105                161.09    147.85     51.71      0.00
  107                 65.02    147.83     54.52      0.00
  109                275.37    146.57     54.71      0.00
  111                168.91    146.96     59.35      0.00
  113                 23.81    146.96     62.81      0.00
  115                 62.00    147.84     57.99      0.00
  117                140.07    150.93     59.50      0.00
  119                209.59    158.13     67.65      0.00
  120                  0.00    155.81     67.51      0.00
  121                 49.54    161.53     70.86      0.00
  123                  0.00    165.97     67.15      0.00
  125                 54.26    160.91     64.96      0.00
  127                 21.02    159.08     44.66      0.00
  129                  0.00    159.07     46.83      0.00
  131                 50.87    159.05     66.32      0.00
  139                  7.01    154.84     53.66      0.00
  141                 11.72    151.84     64.06      0.00
  143                  7.38    143.84     64.27      0.00
  145                 32.88    152.74     65.75      0.00
  147                 10.17    153.43     58.46      0.00
  149                 32.21    153.72     59.67      0.00
  151                171.93    156.60     53.34      0.00
  153                 52.56    156.69     39.21      0.00
  157                 61.63    155.68     61.78      0.00
  159                 49.17    152.30     63.39      0.00
  161                 18.80    150.00     63.26      0.00
  163                 11.21    149.53     62.63      0.00
  164                  0.00    149.53     62.63      0.00
  166                  3.09    149.53     65.66      0.00
  167                 17.33    147.63     66.14      0.00
  169                  0.00    147.63     66.14      0.00
  171                 46.81    146.52     65.22      0.00
  173                  0.00    146.50     65.21      0.00
  177                 69.22    146.13     59.85      0.00
  179                  0.00    146.12     59.85      0.00
  181                  0.00    146.14     59.86      0.00
  183                  0.00    146.14     58.55      0.00
  184                  0.00    145.05     55.92      0.00
  185                 30.52    145.63     56.17      0.00
  187                  0.00    146.43     58.03      0.00
  189                128.42    146.69     61.83      0.00
  191                 97.46    146.81     52.78      0.00
  193                 84.86    146.90     55.85      0.00
  195                  0.00    146.96     56.96      0.00
  197                 20.28    146.85     53.66      0.00
  199                141.99    141.41     62.14      0.00
  201                 53.09    140.69     60.92      0.00
  203               4382.04    140.53     60.02      0.00
  204                  0.00    146.15     54.23      0.00
  205                 77.78    141.38     52.16      0.00
  206                  0.00    140.44     60.42      0.00
  207                 82.57    140.67     57.05      0.00
  208                  0.00    140.17     53.80      0.00
  209                  1.04    139.70     61.40      0.00
  211                 10.32    139.54     57.43      0.00
  213                 16.59    139.48     57.41      0.00
  215                109.71    139.33     57.34      0.00
  217                 28.82    139.31     57.76      0.00
  219                 49.17    139.30     58.63      0.00
  225                 27.13    139.31     56.90      0.00
  229                 76.37    139.35     55.83      0.00
  231                 19.61    139.34     58.21      0.00
  237                 18.58    139.40     54.34      0.00
  239                 53.09    139.39     54.77      0.00
  241                  0.00    139.39     54.77      0.00
  243                  5.16    139.39     54.33      0.00
  247                 83.75    139.39     52.60      0.00
  249                  0.00    139.39     52.60      0.00
  251                 28.75    139.39     47.40      0.00
  253                 64.88    139.40     44.80      0.00
  255                 48.06    139.44     48.72      0.00
  257                  0.00    152.82     58.85      0.00
  259                  0.00    152.40     55.20      0.00
  261                  0.00    150.88     65.38      0.00
  263                  0.00    150.72     65.31      0.00
  265                  0.00    148.24     64.23      0.00
  267                  0.00    146.89     54.55      0.00
  269                  0.00    147.03     63.71      0.00
  271                  0.00    146.25     60.77      0.00
  273                  0.00    141.38     57.79      0.00
  275                  0.00    140.69     56.63      0.00
  River           -13140.79    220.00      0.00      0.00  Reservoir
  Lake                 0.00    167.00      0.00      0.00  Reservoir
  1                  528.45    145.19      5.76      0.00  Tank
  2                 -212.10    139.76     10.08      0.00  Tank
  3                 2417.83    158.23     12.67      0.00  Tank
   
   
  Link Results at 0:15:00 hrs:
  ----------------------------------------------
                       Flow  Velocity  Headloss
  Link                  gpm       fps   /1000ft
  ----------------------------------------------
  20               -2417.83      0.10      0.00
  40                -528.45      0.02      0.00
  50                 212.10      0.01      0.00
  60               13140.79      9.32      8.91
  101                  0.00      0.00      0.00
  103                183.93      0.29      0.03
  105               -409.97      1.16      0.49
  107                 52.19      0.15      0.01
  109                 25.42      0.04      0.00
  111               -249.94      0.71      0.19
  112                521.57      1.48      0.76
  113                 -5.65      0.02      0.00
  114                133.77      0.85      0.44
  115                -12.83      0.08      0.01
  116                104.31      0.30      0.04
  117                623.25      1.77      1.06
  119               -730.16      2.07      1.42
  120               1131.02      3.21      3.18
  121               1016.13      2.88      2.61
  122                362.47      2.31      2.79
  123               9722.10      4.41      1.70
  125              13140.79      5.96      2.96
  129               3006.68      2.13      0.67
  131               2752.58      1.95      0.56
  133              -2417.83      2.47      1.08
  135                313.74      0.22      0.01
  137                 50.87      0.08      0.00
  145                262.87      1.68      1.54
  147                255.86      1.63      1.46
  149               -534.12      3.41      5.72
  151               -526.74      3.36      5.57
  153                289.98      0.82      0.26
  155                322.86      0.92      0.31
  159               -333.04      0.94      0.33
  161               -365.25      2.33      2.83
  163               -147.27      0.42      0.07
  169                199.84      1.28      0.93
  171                389.91      1.11      0.44
  173               7991.57      3.63      1.18
  175               7929.94      3.60      1.16
  177               7880.77      3.58      1.15
  179               7620.12      3.46      1.08
  180                  3.09      0.01      0.00
  181                  3.09      0.01      0.00
  183               7414.67      3.37      1.03
  185                -17.33      0.11      0.01
  186                363.99      2.32      2.81
  187               6813.60      3.09      0.88
  189               4626.39      2.10      0.43
  191              -2140.40      1.52      0.35
  193              -1870.58      1.33      0.28
  195                428.66      1.22      0.53
  197                359.44      1.02      0.38
  199               -169.01      0.48      0.09
  201               -528.45      1.50      0.78
  202                540.01      3.45      5.84
  203                206.55      1.32      0.98
  204                540.01      1.53      0.81
  205                363.99      1.03      0.39
  207                375.55      1.07      0.41
  209                147.06      0.94      0.52
  211                583.74      1.66      0.94
  213                216.93      0.62      0.15
  215                226.14      0.64      0.16
  217               -226.31      0.64      0.16
  219               -241.85      0.69      0.18
  221                241.85      1.54      1.32
  223                 88.08      0.25      0.03
  225                108.36      0.31      0.04
  229               4626.39      3.28      1.27
  231               4380.08      3.11      1.15
  233               4382.04      3.11      1.34
  235                104.32      0.30      0.04
  237                455.77      1.29      0.59
  238                428.93      1.22      0.53
  239                 55.73      0.16      0.01
  240                428.93      1.22      0.53
  241                428.93      1.22      0.53
  243                427.90      0.68      0.13
  245                277.74      0.44      0.06
  247                214.83      0.34      0.04
  249                105.12      0.17      0.01
  251                 49.17      0.10      0.00
  257                 27.13      0.08      0.00
  261                 46.32      0.30      0.06
  263                 19.61      0.06      0.00
  269                139.84      0.40      0.07
  271                 49.67      0.32      0.07
  273                 71.60      0.20      0.02
  275                 10.17      0.03      0.00
  277                  5.16      0.01      0.00
  281                  5.01      0.02      0.00
  283                  8.34      0.02      0.00
  285                -17.77      0.05      0.00
  287                -60.97      0.25      0.03
  289                212.10      0.87      0.35
  291                 64.88      0.27      0.04
  293                 38.18      0.24      0.04
  295                 -9.43      0.03      0.00
  297                477.36      3.05      4.64
  299                229.37      1.46      1.19
  301                229.37      1.46      1.19
  303                247.99      1.58      1.38
  305                145.89      0.41      0.07
  307                393.89      1.12      0.45
  309                191.14      1.22      0.85
  311                 35.00      0.10      0.01
  313                424.89      1.21      0.52
  315              -2299.24      1.63      0.40
  317                110.78      0.71      0.31
  319                 -6.46      0.02      0.00
  321               7605.81      3.45      1.08
  323                -55.05      0.16      0.01
  325                158.85      1.01      0.61
  329              13140.79      5.96      3.00
  330                  0.00      0.00      0.00
  333                 -0.00      0.00      0.00
  10                   0.00      0.00      0.00  Pump
  335              13140.79      0.00    -93.59  Pump
   
   
  Node Results at 0:20:00 hrs:
  --------------------------------------------------------
                     Demand      Head  Pressure  Chemical
  Node                  gpm        ft       psi      mg/L
  --------------------------------------------------------
  10                   0.00    146.66     -0.15      0.00
  15                 526.74    134.71     44.50      0.00
  20                   0.00    158.31     12.70      0.00
  35                1870.58    146.18     57.92      0.00
  40                   0.00    145.25      5.79      0.00
  50                   0.00    139.69     10.05      0.00
  60                   0.00    209.04     90.58      0.00
  601                  0.00    302.65    131.14      0.00
  61                   0.00    302.65    131.14      0.00
  101                226.04    146.66     45.35      0.00
  103                158.51    146.63     44.90      0.00
  105                161.09    147.90     51.73      0.00
  107                 65.02    147.88     54.54      0.00
  109                275.37    146.62     54.74      0.00
  111                168.91    147.01     59.37      0.00
  113                 23.81    147.01     62.83      0.00
  115                 62.00    147.89     58.02      0.00
  117                140.07    150.98     59.53      0.00
  119                209.59    158.19     67.68      0.00
  120                  0.00    155.87     67.54      0.00
  121                 49.54    161.59     70.88      0.00
  123                  0.00    166.03     67.18      0.00
  125                 54.26    160.97     64.98      0.00
  127                 21.02    159.15     44.70      0.00
  129                  0.00    159.14     46.86      0.00
  131                 50.87    159.13     66.35      0.00
  139                  7.01    154.91     53.69      0.00
  141                 11.72    151.90     64.09      0.00
  143                  7.38    143.90     64.30      0.00
  145                 32.88    152.80     65.78      0.00
  147                 10.17    153.49     58.49      0.00
  149                 32.21    153.78     59.70      0.00
  151                171.93    156.66     53.37      0.00
  153                 52.56    156.75     39.23      0.00
  157                 61.63    155.74     61.80      0.00
  159                 49.17    152.35     63.41      0.00
  161                 18.80    150.05     63.28      0.00
  163                 11.21    149.58     62.65      0.00
  164                  0.00    149.58     62.65      0.00
  166                  3.09    149.58     65.68      0.00
  167                 17.33    147.68     66.16      0.00
  169                  0.00    147.68     66.16      0.00
  171                 46.81    146.56     65.24      0.00
  173                  0.00    146.54     65.23      0.00
  177                 69.22    146.18     59.87      0.00
  179                  0.00    146.16     59.87      0.00
  181                  0.00    146.19     59.88      0.00
  183                  0.00    146.18     58.58      0.00
  184                  0.00    145.09     55.94      0.00
  185                 30.52    145.68     56.19      0.00
  187                  0.00    146.48     58.05      0.00
  189                128.42    146.74     61.85      0.00
  191                 97.46    146.86     52.80      0.00
  193                 84.86    146.95     55.87      0.00
  195                  0.00    147.01     56.98      0.00
  197                 20.28    146.90     53.68      0.00
  199                141.99    141.44     62.15      0.00
  201                 53.09    140.71     60.93      0.00
  203               4382.04    140.55     60.04      0.00
  204                  0.00    146.20     54.25      0.00
  205                 77.78    141.41     52.17      0.00
  206                  0.00    140.45     60.42      0.00
  207                 82.57    140.70     57.06      0.00
  208                  0.00    140.17     53.80      0.00
  209                  1.04    139.68     61.39      0.00
  211                 10.32    139.52     57.42      0.00
  213                 16.59    139.46     57.40      0.00
  215                109.71    139.31     57.33      0.00
  217                 28.82    139.29     57.75      0.00
  219                 49.17    139.28     58.62      0.00
  225                 27.13    139.28     56.89      0.00
  229                 76.37    139.32     55.82      0.00
  231                 19.61    139.31     58.20      0.00
  237                 18.58    139.37     54.32      0.00
  239                 53.09    139.35     54.75      0.00
  241                  0.00    139.35     54.75      0.00
  243                  5.16    139.35     54.32      0.00
  247                 83.75    139.35     52.58      0.00
  249                  0.00    139.35     52.58      0.00
  251                 28.75    139.35     47.38      0.00
  253                 64.88    139.35     44.78      0.00
  255                 48.06    139.39     48.70      0.00
  257                  0.00    152.87     58.87      0.00
  259                  0.00    152.45     55.22      0.00
  261                  0.00    150.94     65.40      0.00
  263                  0.00    150.78     65.33      0.00
  265                  0.00    148.29     64.25      0.00
  267                  0.00    146.94     54.57      0.00
  269                  0.00    147.08     63.73      0.00
  271                  0.00    146.30     60.79      0.00
  273                  0.00    141.41     57.81      0.00
  275                  0.00    140.72     56.64      0.00
  River           -13138.76    220.00      0.00      0.00  Reservoir
  Lake                 0.00    167.00      0.00      0.00  Reservoir
  1                  524.12    145.25      5.79      0.00  Tank
  2                 -202.92    139.69     10.05      0.00  Tank
  3                 2410.95    158.31     12.70      0.00  Tank
   
   
  Link Results at 0:20:00 hrs:
  ----------------------------------------------
                       Flow  Velocity  Headloss
  Link                  gpm       fps   /1000ft
  ----------------------------------------------
  20               -2410.95      0.10      0.00
  40                -524.12      0.02      0.00
  50                 202.92      0.01      0.00
  60               13138.76      9.32      8.90
  101                  0.00      0.00      0.00
  103                184.08      0.29      0.03
  105               -410.12      1.16      0.49
  107                 52.31      0.15      0.01
  109                 25.57      0.04      0.00
  111               -249.79      0.71      0.19
  112                521.93      1.48      0.76
  113                 -5.35      0.02      0.00
  114                133.86      0.85      0.44
  115                -12.72      0.08      0.01
  116                104.70      0.30      0.04
  117                623.52      1.77      1.06
  119               -730.50      2.07      1.42
  120               1131.47      3.21      3.19
  121               1016.54      2.88      2.61
  122                362.63      2.31      2.79
  123               9726.55      4.41      1.70
  125              13138.76      5.96      2.96
  129               3000.05      2.13      0.66
  131               2745.86      1.95      0.56
  133              -2410.95      2.46      1.07
  135                313.89      0.22      0.01
  137                 50.87      0.08      0.00
  145                263.02      1.68      1.54
  147                256.01      1.63      1.46
  149               -534.12      3.41      5.72
  151               -526.74      3.36      5.57
  153                289.83      0.82      0.26
  155                322.71      0.92      0.31
  159               -332.88      0.94      0.33
  161               -365.10      2.33      2.83
  163               -147.36      0.42      0.07
  169                199.93      1.28      0.93
  171                389.66      1.11      0.44
  173               7995.82      3.63      1.18
  175               7934.19      3.60      1.16
  177               7885.02      3.58      1.15
  179               7624.30      3.46      1.08
  180                  3.09      0.01      0.00
  181                  3.09      0.01      0.00
  183               7418.87      3.37      1.03
  185                -17.33      0.11      0.01
  186                364.50      2.33      2.82
  187               6817.86      3.09      0.88
  189               4634.46      2.10      0.43
  191              -2136.59      1.52      0.35
  193              -1870.58      1.33      0.28
  195                424.91      1.21      0.52
  197                355.69      1.01      0.37
  199               -168.43      0.48      0.09
  201               -524.12      1.49      0.77
  202                541.11      3.45      5.86
  203                207.13      1.32      0.99
  204                541.11      1.54      0.81
  205                364.50      1.03      0.39
  207                375.57      1.07      0.41
  209                147.23      0.94      0.53
  211                583.68      1.66      0.94
  213                217.27      0.62      0.15
  215                226.45      0.64      0.16
  217               -226.43      0.64      0.16
  219               -241.92      0.69      0.18
  221                241.92      1.54      1.32
  223                 88.30      0.25      0.03
  225                108.57      0.31      0.04
  229               4634.46      3.29      1.28
  231               4386.86      3.11      1.15
  233               4382.04      3.11      1.34
  235                105.61      0.30      0.04
  237                457.98      1.30      0.60
  238                438.11      1.24      0.55
  239                 62.70      0.18      0.02
  240                438.11      1.24      0.55
  241                438.11      1.24      0.55
  243                437.07      0.70      0.13
  245                279.48      0.45      0.06
  247                214.83      0.34      0.04
  249                105.12      0.17      0.01
  251                 49.17      0.10      0.00
  257                 27.13      0.08      0.00
  261                 48.06      0.31      0.07
  263                 19.61      0.06      0.00
  269                147.27      0.42      0.07
  271                 47.92      0.31      0.07
  273                 80.77      0.23      0.02
  275                 13.59      0.04      0.00
  277                  5.16      0.01      0.00
  281                  8.42      0.03      0.00
  283                 14.10      0.04      0.00
  285                -20.07      0.06      0.00
  287                -55.26      0.23      0.03
  289                202.92      0.83      0.32
  291                 64.88      0.27      0.04
  293                 34.72      0.22      0.04
  295                 -5.97      0.02      0.00
  297                477.56      3.05      4.65
  299                229.46      1.46      1.20
  301                229.46      1.46      1.20
  303                248.09      1.58      1.38
  305                145.96      0.41      0.07
  307                394.06      1.12      0.45
  309                191.13      1.22      0.85
  311                 35.32      0.10      0.01
  313                424.77      1.20      0.52
  315              -2295.49      1.63      0.40
  317                110.97      0.71      0.31
  319                 -5.36      0.02      0.00
  321               7610.00      3.45      1.08
  323                -48.27      0.14      0.01
  325                158.91      1.01      0.61
  329              13138.76      5.96      3.00
  330                  0.00      0.00      0.00
  333                 -0.00      0.00      0.00
  10                   0.00      0.00      0.00  Pump
  335              13138.76      0.00    -93.61  Pump
   
   
  Node Results at 0:25:00 hrs:
  --------------------------------------------------------
                     Demand      Head  Pressure  Chemical
  Node                  gpm        ft       psi      mg/L
  --------------------------------------------------------
  10                   0.00    146.71     -0.12      0.00
  15                 526.74    134.77     44.53      0.00
  20                   0.00    158.38     12.73      0.00
  35                1870.58    146.23     57.95      0.00
  40                   0.00    145.31      5.81      0.00
  50                   0.00    139.62     10.02      0.00
  60                   0.00    209.04     90.58      0.00
  601                  0.00    302.67    131.15      0.00
  61                   0.00    302.67    131.15      0.00
  101                226.04    146.71     45.37      0.00
  103                158.51    146.68     44.92      0.00
  105                161.09    147.95     51.76      0.00
  107                 65.02    147.93     54.57      0.00
  109                275.37    146.67     54.76      0.00
  111                168.91    147.06     59.39      0.00
  113                 23.81    147.06     62.85      0.00
  115                 62.00    147.94     58.04      0.00
  117                140.07    151.03     59.55      0.00
  119                209.59    158.25     67.70      0.00
  120                  0.00    155.92     67.56      0.00
  121                 49.54    161.65     70.91      0.00
  123                  0.00    166.09     67.20      0.00
  125                 54.26    161.04     65.01      0.00
  127                 21.02    159.22     44.73      0.00
  129                  0.00    159.21     46.89      0.00
  131                 50.87    159.20     66.38      0.00
  139                  7.01    154.97     53.72      0.00
  141                 11.72    151.97     64.11      0.00
  143                  7.38    143.96     64.33      0.00
  145                 32.88    152.87     65.80      0.00
  147                 10.17    153.55     58.52      0.00
  149                 32.21    153.84     59.73      0.00
  151                171.93    156.72     53.39      0.00
  153                 52.56    156.81     39.26      0.00
  157                 61.63    155.79     61.83      0.00
  159                 49.17    152.40     63.44      0.00
  161                 18.80    150.10     63.30      0.00
  163                 11.21    149.63     62.67      0.00
  164                  0.00    149.63     62.67      0.00
  166                  3.09    149.63     65.70      0.00
  167                 17.33    147.73     66.18      0.00
  169                  0.00    147.73     66.18      0.00
  171                 46.81    146.61     65.26      0.00
  173                  0.00    146.59     65.25      0.00
  177                 69.22    146.22     59.89      0.00
  179                  0.00    146.21     59.89      0.00
  181                  0.00    146.24     59.90      0.00
  183                  0.00    146.23     58.60      0.00
  184                  0.00    145.14     55.96      0.00
  185                 30.52    145.72     56.21      0.00
  187                  0.00    146.53     58.07      0.00
  189                128.42    146.79     61.87      0.00
  191                 97.46    146.91     52.82      0.00
  193                 84.86    147.00     55.89      0.00
  195                  0.00    147.06     57.01      0.00
  197                 20.28    146.94     53.70      0.00
  199                141.99    141.47     62.17      0.00
  201                 53.09    140.74     60.94      0.00
  203               4382.04    140.58     60.05      0.00
  204                  0.00    146.24     54.27      0.00
  205                 77.78    141.44     52.19      0.00
  206                  0.00    140.46     60.43      0.00
  207                 82.57    140.72     57.07      0.00
  208                  0.00    140.17     53.80      0.00
  209                  1.04    139.67     61.38      0.00
  211                 10.32    139.50     57.41      0.00
[...]
  219                 63.63    137.83     57.99      0.00
  225                 35.11    137.84     56.26      0.00
  229                 98.84    138.00     55.25      0.00
  231                 25.38    138.00     57.63      0.00
  237                 24.04    138.14     53.79      0.00
  239                 68.70    138.14     54.22      0.00
  241                  0.00    138.14     54.22      0.00
  243                  6.68    138.14     53.79      0.00
  247                108.39    138.15     52.06      0.00
  249                  0.00    138.15     52.06      0.00
  251                 37.21    138.16     46.87      0.00
  253                 83.96    138.32     44.34      0.00
  255                 62.20    138.39     48.27      0.00
  257                  0.00    152.08     58.53      0.00
  259                  0.00    151.63     54.87      0.00
  261                  0.00    150.03     65.01      0.00
  263                  0.00    149.86     64.93      0.00
  265                  0.00    148.50     64.34      0.00
  267                  0.00    146.84     54.53      0.00
  269                  0.00    147.29     63.82      0.00
  271                  0.00    146.86     61.03      0.00
  273                  0.00    140.32     57.33      0.00
  275                  0.00    139.44     56.09      0.00
  River           -13199.91    220.00      0.00      0.00  Reservoir
  Lake                 0.00    167.00      0.00      0.00  Reservoir
  1                 -584.69    147.96      6.96      0.00  Tank
  2                 -381.81    139.35      9.90      0.00  Tank
  3                  605.88    160.58     13.68      0.00  Tank
   
   
  Link Results at 23:55:00 hrs:
  ----------------------------------------------
                       Flow  Velocity  Headloss
  Link                  gpm       fps   /1000ft
  ----------------------------------------------
  20                -605.88      0.03      0.00
  40                 584.69      0.02      0.00
  50                 381.81      0.02      0.00
  60               13199.91      9.36      8.98
  101                  0.00      0.00      0.00
  103                139.89      0.22      0.02
  105               -432.41      1.23      0.54
  107                  4.47      0.01      0.00
  109                -65.24      0.10      0.00
  111               -421.60      1.20      0.51
  112                451.40      1.28      0.58
  113               -155.33      0.44      0.08
  114                102.59      0.65      0.27
  115                -79.68      0.51      0.17
  116                -83.55      0.24      0.03
  117                645.35      1.83      1.13
  119               -713.90      2.03      1.36
  120               1177.46      3.34      3.43
  121               1048.05      2.97      2.76
  122                363.07      2.32      2.80
  123               9468.14      4.30      1.62
  125              11067.93      5.02      2.16
  129               1172.61      0.83      0.12
  131                910.92      0.65      0.07
  133               -605.88      0.62      0.08
  135                277.84      0.20      0.01
  137                 65.83      0.11      0.00
  145                212.01      1.35      1.03
  147                202.94      1.30      0.95
  149               -272.99      1.74      1.65
  151               -263.44      1.68      1.54
  153                 85.22      0.24      0.03
  155                127.77      0.36      0.06
  159               -140.94      0.40      0.07
  161               -182.62      1.17      0.78
  163               -123.45      0.35      0.05
  169                191.47      1.22      0.86
  171                281.67      0.80      0.24
  173               7737.77      3.51      1.11
  175               7658.01      3.48      1.09
  177               7594.38      3.45      1.07
  179               7311.81      3.32      1.00
  180                  4.00      0.01      0.00
  181                  4.00      0.01      0.00
  183               7079.63      3.21      0.94
  185                -22.42      0.14      0.02
  186                331.01      2.11      2.36
  187               6448.68      2.93      0.79
  189               5303.52      2.41      0.55
  191              -1084.58      0.77      0.10
  193              -1463.24      1.04      0.18
  195               -263.36      0.75      0.21
  197               -352.95      1.00      0.37
  199                231.74      0.66      0.17
  201                584.69      1.66      0.94
  202                611.99      3.91      7.36
  203                320.48      2.05      2.22
  204                611.99      1.74      1.02
  205                331.01      0.94      0.33
  207                 88.73      0.25      0.03
  209                208.78      1.33      1.00
  211                608.53      1.73      1.01
  213                122.23      0.35      0.05
  215                -29.52      0.08      0.00
  217               -308.06      0.87      0.29
  219               -258.24      0.73      0.21
  221                258.24      1.65      1.49
  223                -59.70      0.17      0.01
  225                -33.46      0.09      0.00
  229               5303.52      3.76      1.64
  231               4992.32      3.54      1.46
  233               5007.78      3.55      1.71
  235                127.44      0.36      0.06
  237                513.14      1.46      0.74
  238                447.76      1.27      0.57
  239                 41.48      0.12      0.01
  240                447.76      1.27      0.57
  241                447.76      1.27      0.57
  243                446.42      0.71      0.14
  245                342.12      0.55      0.09
  247                278.02      0.44      0.06
  249                136.04      0.22      0.02
  251                 63.63      0.13      0.01
  257                 35.11      0.10      0.01
  261                 42.64      0.27      0.05
  263                 25.38      0.07      0.00
  269                 90.94      0.26      0.03
  271                 81.58      0.52      0.18
  273                -14.67      0.04      0.00
  275                -27.12      0.08      0.00
  277                  6.68      0.02      0.00
  281                -33.80      0.14      0.01
  283                -56.26      0.16      0.01
  285                  4.26      0.01      0.00
  287               -146.45      0.60      0.18
  289                381.81      1.56      1.04
  291                 83.96      0.34      0.06
  293                 89.20      0.57      0.21
  295                -52.00      0.15      0.01
  297                492.47      3.14      4.92
  299                236.68      1.51      1.27
  301                236.68      1.51      1.27
  303                255.79      1.63      1.46
  305                152.88      0.43      0.08
  307                408.66      1.16      0.48
  309                213.66      1.36      1.05
  311               -243.18      0.69      0.18
  313                493.23      1.40      0.68
  315              -1199.88      0.85      0.12
  317                125.64      0.80      0.39
  319                  1.81      0.01      0.00
  321               7293.29      3.31      1.00
  323                -84.16      0.24      0.03
  325                115.30      0.74      0.33
  329              13199.91      5.99      3.03
  330                  0.00      0.00      0.00
  333                 -0.00      0.00      0.00
  10                   0.00      0.00      0.00  Pump
  335              13199.91      0.00    -93.07  Pump
   
   
  Node Results at 24:00:00 hrs:
  --------------------------------------------------------
                     Demand      Head  Pressure  Chemical
  Node                  gpm        ft       psi      mg/L
  --------------------------------------------------------
  10                   0.00    148.76      0.76      0.00
  15                 526.74    136.87     45.44     30.19
  20                   0.00    160.59     13.69      0.00
  35                1870.58    148.31     58.85      0.00
  40                   0.00    147.89      6.93      0.00
  50                   0.00    139.22      9.85      0.00
  60                   0.00    209.15     90.62      0.00
  601                  0.00    303.38    131.45      0.00
  61                   0.00    303.38    131.45      0.00
  101                226.04    148.76     46.26      0.00
  103                158.51    148.73     45.81      0.00
  105                161.09    150.00     52.65      0.00
  107                 65.02    149.98     55.46      0.00
  109                275.37    148.72     55.65      0.00
  111                168.91    149.11     60.28      0.00
  113                 23.81    149.11     63.74      0.00
  115                 62.00    150.00     58.93      0.00
  117                140.07    153.09     60.44      0.00
  119                209.59    160.30     68.59      0.00
  120                  0.00    157.98     68.45      0.00
  121                 49.54    163.70     71.80      0.00
  123                  0.00    168.10     68.07      0.00
  125                 54.26    163.12     65.91      0.00
  127                 21.02    161.39     45.66      0.00
  129                  0.00    161.38     47.83      0.00
  131                 50.87    161.36     67.32      0.00
  139                  7.01    157.10     54.64      0.00
  141                 11.72    154.07     65.02     29.57
  143                  7.38    146.06     65.24     29.84
  145                 32.88    154.96     66.71      0.00
  147                 10.17    155.64     59.42      0.00
  149                 32.21    155.92     60.63      0.00
  151                171.93    158.79     54.29      0.00
  153                 52.56    158.87     40.15      0.00
  157                 61.63    157.84     62.72      0.00
  159                 49.17    154.45     64.32      0.00
  161                 18.80    152.14     64.19      0.00
  163                 11.21    151.67     63.55      0.00
  164                  0.00    151.67     63.55      0.00
  166                  3.09    151.67     66.59      0.00
  167                 17.33    149.77     67.06      0.00
  169                  0.00    149.77     67.06      0.00
  171                 46.81    148.65     66.14      0.00
  173                  0.00    148.63     66.13      0.00
  177                 69.22    148.31     60.80      0.00
  179                  0.00    148.31     60.80      0.00
  181                  0.00    148.32     60.80      0.00
  183                  0.00    148.32     59.50      0.00
  184                  0.00    147.11     56.81      0.00
  185                 30.52    147.74     57.08      0.00
  187                  0.00    148.57     58.96      0.00
  189                128.42    148.85     62.76      0.00
  191                 97.46    148.96     53.71      0.00
  193                 84.86    149.05     56.78      0.00
  195                  0.00    149.11     57.89      0.00
  197                 20.28    149.00     54.59      0.00
  199                141.99    143.18     62.91      0.00
  201                 53.09    142.42     61.67      0.00
  203               4382.04    142.26     60.77      0.00
  204                  0.00    148.28     55.15      0.00
  205                 77.78    143.13     52.92      0.00
  206                  0.00    141.76     60.99      0.00
  207                 82.57    142.24     57.73      0.00
  208                  0.00    141.22     54.26      0.00
  209                  1.04    140.27     61.65      0.00
  211                 10.32    139.96     57.61      0.00
  213                 16.59    139.88     57.58      0.00
  215                109.71    139.73     57.51      0.00
  217                 28.82    139.71     57.94      0.00
  219                 49.17    139.70     58.80      0.00
  225                 27.13    139.70     57.07      0.00
  229                 76.37    139.41     55.86      0.00
  231                 19.61    139.41     58.24      0.00
  237                 18.58    139.41     54.34      0.00
  239                 53.09    139.30     54.73      0.00
  241                  0.00    139.30     54.73      0.00
  243                  5.16    139.30     54.29      0.00
  247                 83.75    139.27     52.55      0.00
  249                  0.00    139.27     52.55      0.00
  251                 28.75    139.25     47.34      0.00
  253                 64.88    139.18     44.71      0.00
  255                 48.06    139.22     48.62      0.00
  257                  0.00    154.98     59.79      0.00
  259                  0.00    154.56     56.14      0.00
  261                  0.00    153.04     66.31      0.00
  263                  0.00    152.88     66.24      0.00
  265                  0.00    150.38     65.16      0.00
  267                  0.00    149.04     55.48      0.00
  269                  0.00    149.18     64.64      0.00
  271                  0.00    148.41     61.71      0.00
  273                  0.00    143.13     58.55      0.00
  275                  0.00    142.41     57.37      0.00
  River           -13068.74    220.00      0.00      0.00  Reservoir
  Lake                 0.00    167.00      0.00      0.00  Reservoir
  1                  344.95    147.89      6.93      0.00  Tank
  2                  -14.89    139.22      9.85      0.00  Tank
  3                 2332.07    160.59     13.69      0.00  Tank
   
   
  Link Results at 24:00:00 hrs:
  ----------------------------------------------
                       Flow  Velocity  Headloss
  Link                  gpm       fps   /1000ft
  ----------------------------------------------
  20               -2332.07      0.10      0.00
  40                -344.95      0.01      0.00
  50                  14.89      0.00      0.00
  60               13068.74      9.27      8.82
  101                  0.00      0.00      0.00
  103                184.22      0.29      0.03
  105               -410.26      1.16      0.49
  107                 52.41      0.15      0.01
  109                 25.71      0.04      0.00
  111               -249.66      0.71      0.19
  112                522.25      1.48      0.76
  113                 -5.40      0.02      0.00
  114                133.95      0.85      0.44
  115                -12.61      0.08      0.01
  116                104.74      0.30      0.04
  117                623.76      1.77      1.06
  119               -730.81      2.07      1.42
  120               1131.82      3.21      3.19
  121               1016.91      2.88      2.61
  122                362.82      2.32      2.79
  123               9733.27      4.42      1.70
  125              13068.74      5.93      2.93
  129               2923.11      2.07      0.63
  131               2668.44      1.89      0.53
  133              -2332.07      2.38      1.01
  135                315.35      0.22      0.01
  137                 50.87      0.08      0.00
  145                264.48      1.69      1.56
  147                257.47      1.64      1.48
  149               -534.12      3.41      5.72
  151               -526.74      3.36      5.57
  153                288.37      0.82      0.25
  155                321.25      0.91      0.31
  159               -331.42      0.94      0.33
  161               -363.64      2.32      2.81
  163               -147.84      0.42      0.07
  169                200.40      1.28      0.93
  171                387.73      1.10      0.44
  173               8004.13      3.63      1.18
  175               7942.50      3.60      1.17
  177               7893.33      3.58      1.15
  179               7632.94      3.46      1.08
  180                  3.09      0.01      0.00
  181                  3.09      0.01      0.00
  183               7428.43      3.37      1.03
  185                -17.33      0.11      0.01
  186                371.43      2.37      2.92
  187               6833.74      3.10      0.88
  189               4799.22      2.18      0.46
  191              -1987.70      1.41      0.31
  193              -1870.58      1.33      0.28
  195                274.18      0.78      0.23
  197                204.95      0.58      0.13
  199               -140.00      0.40      0.07
  201               -344.95      0.98      0.35
  202                564.39      3.60      6.33
  203                223.48      1.43      1.14
  204                564.39      1.60      0.88
  205                371.43      1.05      0.40
  207                363.48      1.03      0.39
  209                151.73      0.97      0.56
  211                577.36      1.64      0.92
  213                219.70      0.62      0.15
  215                223.33      0.63      0.16
  217               -228.35      0.65      0.16
  219               -241.59      0.69      0.18
  221                241.59      1.54      1.32
  223                 88.81      0.25      0.03
  225                109.09      0.31      0.04
  229               4799.22      3.40      1.36
  231               4514.67      3.20      1.22
  233               4382.04      3.11      1.34
  235                142.56      0.40      0.07
  237                515.79      1.46      0.74
  238                626.14      1.78      1.06
  239                192.92      0.55      0.12
  240                626.14      1.78      1.06
  241                626.14      1.78      1.06
  243                625.10      1.00      0.26
  245                321.76      0.51      0.08
  247                214.83      0.34      0.04
  249                105.12      0.17      0.01
  251                 49.17      0.10      0.00
  257                 27.13      0.08      0.00
  261                 90.34      0.58      0.21
  263                 19.61      0.06      0.00
  269                293.02      0.83      0.26
  271                  5.64      0.04      0.00
  273                268.81      0.76      0.22
  275                 84.00      0.24      0.03
  277                  5.16      0.01      0.00
  281                 78.83      0.32      0.06
  283                131.72      0.37      0.06
  285                -70.67      0.20      0.02
  287                 65.75      0.27      0.04
  289                 14.89      0.06      0.00
  291                 64.88      0.27      0.04
  293                -32.30      0.21      0.03
  295                 61.05      0.17      0.01
  297                477.73      3.05      4.65
  299                229.55      1.47      1.20
  301                229.55      1.47      1.20
  303                248.19      1.58      1.38
  305                146.02      0.41      0.07
  307                394.21      1.12      0.45
  309                190.21      1.21      0.84
  311                 33.12      0.09      0.00
  313                420.31      1.19      0.51
  315              -2144.76      1.52      0.36
  317                113.38      0.72      0.32
  319                 29.18      0.08      0.00
  321               7618.63      3.46      1.08
  323                 79.54      0.23      0.02
  325                157.06      1.00      0.59
  329              13068.74      5.93      2.97
  330                  0.00      0.00      0.00
  333                 -0.00      0.00      0.00
  10                   0.00      0.00      0.00  Pump
  335              13068.74      0.00    -94.23  Pump
   
  Analysis ended Wed May 06 17:24:18 2020
