  Page 1                                    Wed May 06 17:28:33 2020

  ******************************************************************
  *                           E P A N E T                          *
  *                   Hydraulic and Water Quality                  *
  *                   Analysis for Pipe Networks                   *
  *                         Version 2.00.12                        *
  ******************************************************************
  
  Analysis begun Wed May 06 17:28:33 2020

   
  Hydraulic Status:
  -----------------------------------------------------------------------
     0:00:00: Balanced after 5 trials
     0:00:00: Reservoir River is emptying
     0:00:00: Reservoir Lake is closed
     0:00:00: Tank 1 is filling at 13.10 ft
     0:00:00: Tank 2 is emptying at 23.50 ft
     0:00:00: Tank 3 is filling at 29.00 ft
   
     0:05:00: Balanced after 2 trials
   
     0:10:00: Balanced after 2 trials
   
     0:15:00: Balanced after 2 trials
   
     0:20:00: Balanced after 2 trials
   
     0:25:00: Balanced after 2 trials
   
     0:30:00: Balanced after 2 trials
   
     0:35:00: Balanced after 2 trials
   
     0:40:00: Balanced after 2 trials
   
     0:45:00: Balanced after 2 trials
   
     0:50:00: Balanced after 2 trials
   
     0:55:00: Balanced after 2 trials
   
     1:00:00: Pump 10 changed by timer control
     1:00:00: Balanced after 7 trials
     1:00:00: Reservoir Lake is emptying
     1:00:00: Pump 10 changed from closed to open
   
     1:05:00: Balanced after 2 trials
   
     1:10:00: Balanced after 2 trials
   
     1:15:00: Balanced after 2 trials
   
     1:20:00: Balanced after 2 trials
   
     1:25:00: Balanced after 2 trials
   
     1:30:00: Balanced after 2 trials
   
     1:35:00: Balanced after 2 trials
   
     1:40:00: Balanced after 1 trials
   
     1:45:00: Balanced after 1 trials
   
     1:50:00: Balanced after 1 trials
   
     1:55:00: Balanced after 1 trials
   
     2:00:00: Balanced after 3 trials
   
     2:05:00: Balanced after 1 trials
   
     2:10:00: Balanced after 1 trials
     2:10:00: Tank 2 is filling at 21.39 ft
   
     2:15:00: Balanced after 1 trials
   
     2:20:00: Balanced after 1 trials
   
     2:25:00: Balanced after 1 trials
   
     2:30:00: Balanced after 1 trials
   
     2:35:00: Balanced after 1 trials
   
     2:40:00: Balanced after 1 trials
   
     2:45:00: Balanced after 1 trials
   
     2:50:00: Balanced after 1 trials
   
     2:55:00: Balanced after 1 trials
   
     3:00:00: Balanced after 3 trials
   
     3:05:00: Balanced after 1 trials
   
     3:10:00: Balanced after 1 trials
   
     3:15:00: Balanced after 1 trials
   
     3:20:00: Balanced after 1 trials
   
     3:25:00: Balanced after 1 trials
   
     3:30:00: Balanced after 1 trials
   
     3:35:00: Balanced after 1 trials
   
     3:40:00: Balanced after 1 trials
   
     3:45:00: Balanced after 1 trials
   
     3:50:00: Balanced after 1 trials
   
     3:55:00: Balanced after 1 trials
   
     4:00:00: Balanced after 3 trials
   
     4:05:00: Balanced after 1 trials
   
     4:10:00: Balanced after 1 trials
   
     4:10:28: Pump 335 changed by Tank 1 control
     4:10:28: Pipe 330 changed by Tank 1 control
     4:10:28: Balanced after 4 trials
     4:10:28: Pipe 330 changed from closed to open
     4:10:28: Pump 335 changed from open to closed
   
     4:15:00: Balanced after 2 trials
   
     4:20:00: Balanced after 2 trials
   
     4:25:00: Balanced after 2 trials
   
     4:30:00: Balanced after 2 trials
   
     4:35:00: Balanced after 2 trials
   
     4:40:00: Balanced after 2 trials
   
     4:45:00: Balanced after 2 trials
   
     4:50:00: Balanced after 2 trials
   
     4:55:00: Balanced after 2 trials
   
     5:00:00: Balanced after 3 trials
     5:00:00: Tank 3 is emptying at 34.36 ft
   
     5:05:00: Balanced after 2 trials
   
     5:10:00: Balanced after 2 trials
   
     5:15:00: Balanced after 2 trials
   
     5:20:00: Balanced after 2 trials
   
     5:25:00: Balanced after 2 trials
   
     5:30:00: Balanced after 2 trials
   
     5:35:00: Balanced after 2 trials
   
     5:40:00: Balanced after 2 trials
   
     5:45:00: Balanced after 2 trials
   
     5:50:00: Balanced after 2 trials
   
     5:55:00: Balanced after 2 trials
   
     6:00:00: Balanced after 4 trials
     6:00:00: Tank 3 is filling at 34.14 ft
   
     6:05:00: Balanced after 2 trials
   
     6:10:00: Balanced after 2 trials
   
     6:15:00: Balanced after 2 trials
   
     6:20:00: Balanced after 2 trials
   
     6:25:00: Balanced after 2 trials
   
     6:30:00: Balanced after 2 trials
   
     6:35:00: Balanced after 2 trials
   
     6:40:00: Balanced after 2 trials
   
     6:45:00: Balanced after 2 trials
   
     6:50:00: Balanced after 2 trials
   
     6:55:00: Balanced after 2 trials
   
     7:00:00: Balanced after 3 trials
   
     7:05:00: Balanced after 1 trials
   
     7:10:00: Balanced after 1 trials
   
     7:15:00: Balanced after 1 trials
   
     7:20:00: Balanced after 1 trials
   
     7:25:00: Balanced after 1 trials
   
     7:30:00: Balanced after 1 trials
   
     7:35:00: Balanced after 1 trials
   
     7:40:00: Balanced after 1 trials
   
     7:45:00: Balanced after 1 trials
   
     7:50:00: Balanced after 1 trials
   
     7:55:00: Balanced after 1 trials
   
     8:00:00: Balanced after 2 trials
   
     8:05:00: Balanced after 1 trials
   
     8:10:00: Balanced after 1 trials
   
     8:15:00: Balanced after 1 trials
   
     8:20:00: Balanced after 1 trials
   
     8:25:00: Balanced after 1 trials
   
     8:30:00: Balanced after 1 trials
   
     8:35:00: Balanced after 1 trials
   
     8:40:00: Balanced after 4 trials
     8:40:00: Tank 3 is closed at 35.50 ft
     8:40:00: Pipe 20 changed from open to temporarily closed
   
     8:45:00: Balanced after 1 trials
   
     8:50:00: Balanced after 1 trials
   
     8:55:00: Balanced after 1 trials
   
     9:00:00: Balanced after 5 trials
     9:00:00: Tank 1 is emptying at 23.40 ft
     9:00:00: Tank 2 is emptying at 28.79 ft
     9:00:00: Tank 3 is emptying at 35.50 ft
     9:00:00: Pipe 20 changed from temporarily closed to open
   
     9:05:00: Balanced after 1 trials
   
     9:10:00: Balanced after 1 trials
   
     9:15:00: Balanced after 1 trials
   
     9:20:00: Balanced after 1 trials
   
     9:25:00: Balanced after 1 trials
   
     9:30:00: Balanced after 1 trials
   
     9:35:00: Balanced after 1 trials
   
     9:40:00: Balanced after 1 trials
   
     9:45:00: Balanced after 1 trials
   
     9:50:00: Balanced after 1 trials
   
     9:55:00: Balanced after 1 trials
   
    10:00:00: Balanced after 3 trials
    10:00:00: Tank 1 is filling at 22.94 ft
    10:00:00: Tank 2 is filling at 28.50 ft
   
    10:05:00: Balanced after 1 trials
   
    10:10:00: Balanced after 1 trials
   
    10:15:00: Balanced after 1 trials
    10:15:00: Tank 1 is emptying at 22.94 ft
   
    10:20:00: Balanced after 1 trials
   
    10:25:00: Balanced after 1 trials
   
    10:30:00: Balanced after 1 trials
   
    10:35:00: Balanced after 1 trials
   
    10:40:00: Balanced after 1 trials
   
    10:45:00: Balanced after 1 trials
   
    10:50:00: Balanced after 1 trials
   
    10:55:00: Balanced after 1 trials
   
    11:00:00: Balanced after 3 trials
    11:00:00: Tank 2 is emptying at 28.64 ft
   
    11:05:00: Balanced after 1 trials
   
    11:10:00: Balanced after 1 trials
   
    11:15:00: Balanced after 1 trials
   
    11:20:00: Balanced after 1 trials
   
    11:25:00: Balanced after 1 trials
   
    11:30:00: Balanced after 1 trials
   
    11:35:00: Balanced after 1 trials
   
    11:40:00: Balanced after 1 trials
   
    11:45:00: Balanced after 1 trials
   
    11:50:00: Balanced after 1 trials
   
    11:55:00: Balanced after 1 trials
   
    12:00:00: Balanced after 3 trials
   
    12:05:00: Balanced after 1 trials
   
    12:10:00: Balanced after 1 trials
   
    12:15:00: Balanced after 1 trials
   
    12:20:00: Balanced after 1 trials
   
    12:25:00: Balanced after 1 trials
   
    12:30:00: Balanced after 1 trials
   
    12:35:00: Balanced after 1 trials
   
    12:40:00: Balanced after 1 trials
   
    12:45:00: Balanced after 1 trials
   
    12:50:00: Balanced after 1 trials
   
    12:55:00: Balanced after 1 trials
   
    13:00:00: Balanced after 3 trials
    13:00:00: Tank 2 is filling at 28.01 ft
   
    13:05:00: Balanced after 1 trials
   
    13:10:00: Balanced after 1 trials
   
    13:15:00: Balanced after 1 trials
   
    13:20:00: Balanced after 1 trials
   
    13:25:00: Balanced after 1 trials
   
    13:30:00: Balanced after 1 trials
   
    13:35:00: Balanced after 1 trials
   
    13:40:00: Balanced after 1 trials
   
    13:45:00: Balanced after 1 trials
   
    13:50:00: Balanced after 1 trials
   
    13:55:00: Balanced after 1 trials
    13:55:00: Tank 2 is closed at 28.05 ft
   
    14:00:00: Balanced after 3 trials
    14:00:00: Tank 2 is emptying at 28.05 ft
   
    14:05:00: Balanced after 1 trials
   
    14:10:00: Balanced after 1 trials
   
    14:15:00: Balanced after 1 trials
   
    14:20:00: Balanced after 1 trials
   
    14:25:00: Balanced after 1 trials
   
    14:30:00: Balanced after 1 trials
   
    14:35:00: Balanced after 1 trials
   
    14:40:00: Balanced after 1 trials
   
    14:45:00: Balanced after 1 trials
   
    14:50:00: Balanced after 1 trials
   
    14:55:00: Balanced after 1 trials
   
    15:00:00: Pump 10 changed by timer control
    15:00:00: Balanced after 4 trials
    15:00:00: Reservoir Lake is closed
    15:00:00: Pump 10 changed from open to closed
   
    15:05:00: Balanced after 1 trials
   
    15:10:00: Balanced after 1 trials
   
    15:15:00: Balanced after 1 trials
   
    15:20:00: Balanced after 1 trials
   
    15:25:00: Balanced after 1 trials
   
    15:30:00: Balanced after 1 trials
   
    15:35:00: Balanced after 1 trials
   
    15:40:00: Balanced after 1 trials
   
    15:45:00: Balanced after 1 trials
   
    15:50:00: Balanced after 1 trials
   
    15:55:00: Balanced after 1 trials
   
    16:00:00: Balanced after 4 trials
    16:00:00: Tank 1 is filling at 20.29 ft
    16:00:00: Tank 2 is filling at 26.69 ft
   
    16:05:00: Balanced after 2 trials
   
    16:10:00: Balanced after 2 trials
   
    16:15:00: Balanced after 2 trials
   
    16:20:00: Balanced after 2 trials
   
    16:25:00: Balanced after 2 trials
   
    16:30:00: Balanced after 2 trials
   
    16:35:00: Balanced after 2 trials
   
    16:40:00: Balanced after 2 trials
   
    16:45:00: Balanced after 2 trials
   
    16:50:00: Balanced after 2 trials
   
    16:55:00: Balanced after 2 trials
   
    17:00:00: Balanced after 4 trials
    17:00:00: Tank 1 is emptying at 20.59 ft
    17:00:00: Tank 2 is emptying at 27.81 ft
   
    17:05:00: Balanced after 1 trials
   
    17:10:00: Balanced after 1 trials
   
    17:15:00: Balanced after 1 trials
   
    17:20:00: Balanced after 1 trials
   
    17:25:00: Balanced after 1 trials
   
    17:30:00: Balanced after 1 trials
   
    17:35:00: Balanced after 1 trials
   
    17:40:00: Balanced after 1 trials
   
    17:45:00: Balanced after 1 trials
   
    17:50:00: Balanced after 1 trials
   
    17:55:00: Balanced after 1 trials
   
    18:00:00: Balanced after 3 trials
    18:00:00: Tank 2 is filling at 27.11 ft
   
    18:05:00: Balanced after 1 trials
    18:05:00: Tank 2 is emptying at 27.12 ft
   
    18:10:00: Balanced after 1 trials
   
    18:15:00: Balanced after 1 trials
   
    18:20:00: Balanced after 1 trials
   
    18:25:00: Balanced after 1 trials
   
    18:30:00: Balanced after 1 trials
   
    18:35:00: Balanced after 1 trials
   
    18:40:00: Balanced after 1 trials
   
    18:45:00: Balanced after 1 trials
   
    18:50:00: Balanced after 1 trials
   
    18:55:00: Balanced after 1 trials
   
    19:00:00: Balanced after 3 trials
   
    19:05:00: Balanced after 2 trials
   
    19:10:00: Balanced after 2 trials
   
    19:15:00: Balanced after 2 trials
   
    19:20:00: Balanced after 2 trials
   
    19:25:00: Balanced after 2 trials
   
    19:30:00: Balanced after 2 trials
   
    19:35:00: Balanced after 2 trials
   
    19:40:00: Balanced after 2 trials
   
    19:45:00: Balanced after 2 trials
   
    19:50:00: Balanced after 2 trials
   
    19:55:00: Balanced after 2 trials
   
    20:00:00: Balanced after 4 trials
    20:00:00: Tank 1 is filling at 17.62 ft
    20:00:00: Tank 2 is filling at 25.53 ft
   
    20:05:00: Balanced after 2 trials
   
    20:10:00: Balanced after 2 trials
   
    20:15:00: Balanced after 2 trials
   
    20:20:00: Balanced after 2 trials
    20:20:00: Tank 1 is emptying at 17.62 ft
   
    20:25:00: Balanced after 2 trials
   
    20:30:00: Balanced after 2 trials
   
    20:35:00: Balanced after 2 trials
   
    20:40:00: Balanced after 2 trials
   
    20:45:00: Balanced after 2 trials
   
    20:50:00: Balanced after 2 trials
   
    20:55:00: Balanced after 2 trials
   
    21:00:00: Balanced after 4 trials
    21:00:00: Tank 2 is emptying at 26.22 ft
   
    21:05:00: Balanced after 1 trials
   
    21:10:00: Balanced after 1 trials
   
    21:15:00: Balanced after 1 trials
   
    21:20:00: Balanced after 1 trials
   
    21:25:00: Balanced after 1 trials
   
    21:30:00: Balanced after 1 trials
   
    21:35:00: Balanced after 1 trials
   
    21:40:00: Balanced after 1 trials
   
    21:45:00: Balanced after 1 trials
   
    21:45:26: Pump 335 changed by Tank 1 control
    21:45:26: Pipe 330 changed by Tank 1 control
    21:45:26: Balanced after 5 trials
    21:45:26: Tank 1 is filling at 17.10 ft
    21:45:26: Tank 3 is filling at 29.48 ft
    21:45:26: Pipe 330 changed from open to closed
    21:45:26: Pump 335 changed from closed to open
   
    21:50:00: Balanced after 1 trials
   
    21:55:00: Balanced after 1 trials
   
    22:00:00: Balanced after 3 trials
    22:00:00: Tank 1 is emptying at 17.24 ft
   
    22:05:00: Balanced after 2 trials
   
    22:10:00: Balanced after 2 trials
   
    22:15:00: Balanced after 2 trials
   
    22:20:00: Balanced after 2 trials
   
    22:25:00: Balanced after 2 trials
   
    22:30:00: Balanced after 2 trials
   
    22:35:00: Balanced after 2 trials
   
    22:40:00: Balanced after 2 trials
   
    22:45:00: Balanced after 2 trials
   
    22:50:00: Balanced after 2 trials
   
    22:55:00: Balanced after 2 trials
   
    23:00:00: Balanced after 3 trials
   
    23:05:00: Balanced after 2 trials
   
    23:10:00: Balanced after 2 trials
   
    23:15:00: Balanced after 2 trials
   
    23:20:00: Balanced after 2 trials
   
    23:25:00: Balanced after 2 trials
   
    23:30:00: Balanced after 2 trials
   
    23:35:00: Balanced after 2 trials
   
    23:40:00: Balanced after 2 trials
   
    23:45:00: Balanced after 2 trials
   
    23:50:00: Balanced after 2 trials
   
    23:55:00: Balanced after 2 trials
   
    24:00:00: Balanced after 4 trials
    24:00:00: Tank 1 is filling at 15.29 ft
   
   
  Node Results at 0:00:00 hrs:
  --------------------------------------------------------
                     Demand      Head  Pressure  Chemical
  Node                  gpm        ft       psi      mg/L
  --------------------------------------------------------
  10                   0.00    145.08     -0.83      0.00
  15                 750.07    112.59     34.92      0.00
  20                   0.00    158.00     12.57      0.00
  35                1463.66    145.42     57.60      0.00
  40                   0.00    145.00      5.68      0.00
  50                   0.00    140.00     10.18      0.00
  60                   0.00    209.00     90.56      0.00
  601                  0.00    302.36    131.01      0.00
  61                   0.00    302.36    131.01      0.00
  101                258.33    145.08     44.67      0.00
  103                181.15    145.05     44.22      0.00
  105                184.10    146.40     51.09      0.00
  107                 74.31    146.40     53.90      0.00
  109                314.70    145.05     54.06      0.00
  111                193.04    145.70     58.80      0.00
  113                 27.21    145.75     62.29      0.00
  115                 70.86    146.51     57.41      0.00
  117                160.09    149.64     58.94      0.00
  119                239.54    157.23     67.26      0.00
  120                  0.00    154.77     67.06      0.00
  121                 56.62    160.75     70.52      0.00
  123                  0.00    165.21     66.82      0.00
  125                 62.02    160.20     64.65      0.00
  127                 24.02    158.64     44.47      0.00
  129                  0.00    158.63     46.63      0.00
  131                 58.14    158.61     66.12      0.00
  139                  8.01    151.04     52.01      0.00
  141                 13.40    145.61     61.36      0.00
  143                  8.43    130.29     58.40      0.00
  145                 37.58    147.40     63.43      0.00
  147                 11.63    148.70     56.42      0.00
  149                 36.82    149.25     57.74      0.00
  151                196.49    154.52     52.44      0.00
  153                 60.07    154.63     38.32      0.00
  157                 70.43    154.77     61.39      0.00
  159                 56.20    151.40     63.00      0.00
  161                 21.49    149.11     62.88      0.00
  163                 12.81    148.65     62.24      0.00
  164                  0.00    148.65     62.24      0.00
  166                  3.54    148.65     65.28      0.00
  167                 19.80    146.77     65.76      0.00
  169                  0.00    146.77     65.76      0.00
  171                 53.50    145.68     64.86      0.00
  173                  0.00    145.66     64.85      0.00
  177                 79.11    145.41     59.54      0.00
  179                  0.00    145.40     59.54      0.00
  181                  0.00    145.43     59.55      0.00
  183                  0.00    145.41     58.24      0.00
  184                  0.00    143.98     55.45      0.00
  185                 34.88    144.64     55.74      0.00
  187                  0.00    145.38     57.57      0.00
  189                146.77    145.72     61.41      0.00
  191                111.38    145.65     52.28      0.00
  193                 96.98    145.75     55.35      0.00
  195                  0.00    145.82     56.47      0.00
  197                 23.17    145.65     53.15      0.00
  199                162.28    139.89     61.48      0.00
  201                 60.67    139.07     60.21      0.00
  203               4805.84    138.88     59.31      0.00
  204                  0.00    145.11     53.78      0.00
  205                 88.89    139.86     51.50      0.00
  206                  0.00    138.98     59.79      0.00
  207                 94.37    139.12     56.38      0.00
  208                  0.00    138.83     53.22      0.00
  209                  1.18    138.57     60.91      0.00
  211                 11.79    138.48     56.97      0.00
  213                 18.96    138.41     56.94      0.00
  215                125.38    138.22     56.86      0.00
  217                 32.94    138.19     57.28      0.00
  219                 56.20    138.18     58.14      0.00
  225                 31.01    138.19     56.41      0.00
  229                 87.28    138.35     55.40      0.00
  231                 22.41    138.34     57.78      0.00
  237                 21.23    138.48     53.94      0.00
  239                 60.67    138.49     54.38      0.00
  241                  0.00    138.49     54.38      0.00
  243                  5.90    138.49     53.94      0.00
  247                 95.72    138.51     52.22      0.00
  249                  0.00    138.51     52.22      0.00
  251                 32.86    138.54     47.03      0.00
  253                 74.15    138.81     44.55      0.00
  255                 54.93    138.87     48.47      0.00
  257                  0.00    151.62     58.33      0.00
  259                  0.00    151.18     54.67      0.00
  261                  0.00    149.59     64.82      0.00
  263                  0.00    149.42     64.74      0.00
  265                  0.00    147.37     63.86      0.00
  267                  0.00    145.78     54.07      0.00
  269                  0.00    146.12     63.31      0.00
  271                  0.00    145.50     60.45      0.00
  273                  0.00    139.86     57.14      0.00
  275                  0.00    139.10     55.94      0.00
  River           -13166.51    220.00      0.00      0.00  Reservoir
  Lake                 0.00    167.00      0.00      0.00  Reservoir
  1                  338.20    145.00      5.68      0.00  Tank
  2                 -417.78    140.00     10.18      0.00  Tank
  3                 2081.09    158.00     12.57      0.00  Tank
   
   
  Link Results at 0:00:00 hrs:
  ----------------------------------------------
                       Flow  Velocity  Headloss
  Link                  gpm       fps   /1000ft
  ----------------------------------------------
  20               -2081.09      0.09      0.00
  40                -338.20      0.01      0.00
  50                 417.78      0.02      0.00
  60               13166.51      9.34      8.94
  101                  0.00      0.00      0.00
  103                166.83      0.27      0.02
  105               -425.16      1.21      0.52
  107                 30.38      0.09      0.00
  109                -14.32      0.02      0.00
  111               -329.03      0.93      0.32
  112                497.48      1.41      0.70
  113                -89.43      0.25      0.03
  114                123.40      0.79      0.38
  115                -43.93      0.28      0.06
  116                  6.75      0.02      0.00
  117                639.65      1.81      1.11
  119               -735.66      2.09      1.44
  120               1164.20      3.30      3.36
  121               1044.67      2.96      2.75
  122                371.20      2.37      2.91
  123               9921.03      4.50      1.76
  125              13166.51      5.98      2.97
  129               2817.67      2.00      0.59
  131               2523.62      1.79      0.48
  133              -2081.09      2.13      0.82
  135                418.51      0.30      0.02
  137                 58.14      0.09      0.00
  145                360.37      2.30      2.76
  147                352.36      2.25      2.65
  149               -758.50      4.84     10.95
  151               -750.07      4.79     10.72
  153                419.54      1.19      0.51
  155                457.12      1.30      0.59
  159               -468.75      1.33      0.62
  161               -505.56      3.23      5.16
  163               -171.97      0.49      0.10
  169                232.04      1.48      1.22
  171                530.09      1.50      0.78
  173               7987.20      3.63      1.18
  175               7916.77      3.59      1.16
  177               7860.57      3.57      1.14
  179               7586.23      3.44      1.07
  180                  3.54      0.01      0.00
  181                  3.54      0.01      0.00
  183               7360.85      3.34      1.01
  185                -19.80      0.13      0.01
  186                349.55      2.23      2.61
  187               6732.31      3.06      0.86
  189               4952.05      2.25      0.49
  191              -1726.76      1.22      0.24
  193              -1463.66      1.04      0.18
  195                403.23      1.14      0.47
  197                324.12      0.92      0.31
  199                -14.08      0.04      0.00
  201               -338.20      0.96      0.34
  202                574.81      3.67      6.55
  203                260.14      1.66      1.51
  204                574.81      1.63      0.91
  205                349.55      0.99      0.36
  207                274.23      0.78      0.23
  209                169.49      1.08      0.68
  211                608.74      1.73      1.01
  213                180.06      0.51      0.11
  215                121.88      0.35      0.05
  217               -249.77      0.71      0.19
  219               -252.85      0.72      0.20
  221                252.85      1.61      1.43
  223                 41.67      0.12      0.01
  225                 64.85      0.18      0.02
  229               4952.05      3.51      1.44
  231               4690.22      3.33      1.30
  233               4805.84      3.41      1.59
  235                 99.56      0.28      0.04
  237                468.53      1.33      0.62
  238                314.82      0.89      0.30
  239                -59.34      0.17      0.01
  240                314.82      0.89      0.30
  241                314.82      0.89      0.30
  243                313.64      0.50      0.07
  245                295.66      0.47      0.07
  247                245.52      0.39      0.05
  249                120.14      0.19      0.01
  251                 56.20      0.12      0.01
  257                 31.01      0.09      0.00
  261                 31.18      0.20      0.03
  263                 22.41      0.06      0.00
  269                  6.19      0.02      0.00
  271                 78.52      0.50      0.16
  273                -93.56      0.27      0.03
  275                -54.15      0.15      0.01
  277                  5.90      0.02      0.00
  281                -60.05      0.25      0.03
  283               -100.08      0.28      0.04
  285                 24.55      0.07      0.00
  287               -180.32      0.74      0.26
  289                417.78      1.71      1.22
  291                 74.15      0.30      0.05
  293                108.39      0.69      0.30
  295                -75.53      0.21      0.02
  297                490.72      3.13      4.89
  299                235.76      1.50      1.26
  301                235.76      1.50      1.26
  303                254.96      1.63      1.45
  305                148.93      0.42      0.07
  307                403.89      1.15      0.47
  309                209.04      1.33      1.01
  311                -87.15      0.25      0.03
  313                468.61      1.33      0.62
  315              -1866.89      1.32      0.28
  317                116.95      0.75      0.34
  319                -17.39      0.05      0.00
  321               7569.89      3.44      1.07
  323               -176.29      0.50      0.10
  325                140.13      0.89      0.48
  329              13166.51      5.98      3.01
  330                  0.00      0.00      0.00
  333                 -0.00      0.00      0.00
  10                   0.00      0.00      0.00  Pump
  335              13166.51      0.00    -93.37  Pump
   
   
  Node Results at 0:05:00 hrs:
  --------------------------------------------------------
                     Demand      Head  Pressure  Chemical
  Node                  gpm        ft       psi      mg/L
  --------------------------------------------------------
  10                   0.00    145.11     -0.82      0.00
  15                 750.07    112.65     34.94      0.00
  20                   0.00    158.07     12.59      0.00
  35                1463.66    145.45     57.61      0.00
  40                   0.00    145.04      5.69      0.00
  50                   0.00    139.86     10.12      0.00
  60                   0.00    209.00     90.56      0.00
  601                  0.00    302.38    131.02      0.00
  61                   0.00    302.38    131.02      0.00
  101                258.33    145.11     44.68      0.00
  103                181.15    145.08     44.23      0.00
  105                184.10    146.44     51.10      0.00
  107                 74.31    146.43     53.92      0.00
  109                314.70    145.08     54.07      0.00
  111                193.04    145.73     58.81      0.00
  113                 27.21    145.78     62.30      0.00
  115                 70.86    146.54     57.43      0.00
  117                160.09    149.67     58.96      0.00
  119                239.54    157.27     67.28      0.00
  120                  0.00    154.82     67.08      0.00
  121                 56.62    160.80     70.54      0.00
  123                  0.00    165.26     66.84      0.00
  125                 62.02    160.25     64.67      0.00
  127                 24.02    158.70     44.50      0.00
  129                  0.00    158.69     46.66      0.00
  131                 58.14    158.67     66.15      0.00
  139                  8.01    151.10     52.04      0.00
  141                 13.40    145.67     61.38      0.00
  143                  8.43    130.34     58.43      0.00
  145                 37.58    147.45     63.45      0.00
  147                 11.63    148.75     56.44      0.00
  149                 36.82    149.30     57.76      0.00
  151                196.49    154.57     52.46      0.00
  153                 60.07    154.68     38.34      0.00
  157                 70.43    154.82     61.41      0.00
  159                 56.20    151.44     63.02      0.00
  161                 21.49    149.14     62.89      0.00
  163                 12.81    148.68     62.26      0.00
  164                  0.00    148.68     62.26      0.00
  166                  3.54    148.68     65.29      0.00
  167                 19.80    146.80     65.78      0.00
  169                  0.00    146.80     65.78      0.00
  171                 53.50    145.71     64.87      0.00
  173                  0.00    145.68     64.86      0.00
  177                 79.11    145.44     59.55      0.00
  179                  0.00    145.43     59.55      0.00
  181                  0.00    145.46     59.56      0.00
  183                  0.00    145.43     58.25      0.00
  184                  0.00    144.00     55.46      0.00
  185                 34.88    144.66     55.75      0.00
  187                  0.00    145.40     57.59      0.00
  189                146.77    145.75     61.42      0.00
  191                111.38    145.68     52.29      0.00
  193                 96.98    145.78     55.37      0.00
  195                  0.00    145.85     56.48      0.00
  197                 23.17    145.69     53.16      0.00
  199                162.28    139.89     61.48      0.00
  201                 60.67    139.07     60.22      0.00
  203               4805.84    138.88     59.31      0.00
  204                  0.00    145.14     53.79      0.00
  205                 88.89    139.87     51.51      0.00
  206                  0.00    138.97     59.78      0.00
  207                 94.37    139.11     56.38      0.00
  208                  0.00    138.81     53.21      0.00
  209                  1.18    138.52     60.89      0.00
  211                 11.79    138.43     56.95      0.00
  213                 18.96    138.36     56.92      0.00
  215                125.38    138.17     56.83      0.00
  217                 32.94    138.15     57.26      0.00
  219                 56.20    138.13     58.12      0.00
  225                 31.01    138.14     56.39      0.00
  229                 87.28    138.30     55.37      0.00
  231                 22.41    138.29     57.76      0.00
  237                 21.23    138.43     53.91      0.00
  239                 60.67    138.44     54.35      0.00
  241                  0.00    138.44     54.35      0.00
  243                  5.90    138.44     53.92      0.00
  247                 95.72    138.45     52.19      0.00
  249                  0.00    138.45     52.19      0.00
  251                 32.86    138.48     47.00      0.00
  253                 74.15    138.73     44.51      0.00
  255                 54.93    138.78     48.44      0.00
  257                  0.00    151.66     58.35      0.00
  259                  0.00    151.22     54.69      0.00
  261                  0.00    149.62     64.83      0.00
  263                  0.00    149.46     64.76      0.00
  265                  0.00    147.40     63.87      0.00
  267                  0.00    145.81     54.08      0.00
  269                  0.00    146.15     63.33      0.00
  271                  0.00    145.53     60.46      0.00
  273                  0.00    139.87     57.14      0.00
  275                  0.00    139.10     55.94      0.00
  River           -13164.91    220.00      0.00      0.00  Reservoir
  Lake                 0.00    167.00      0.00      0.00  Reservoir
  1                  333.39    145.04      5.69      0.00  Tank
  2                 -406.09    139.86     10.12      0.00  Tank
  3                 2072.61    158.07     12.59      0.00  Tank
   
   
  Link Results at 0:05:00 hrs:
  ----------------------------------------------
                       Flow  Velocity  Headloss
  Link                  gpm       fps   /1000ft
  ----------------------------------------------
  20               -2072.61      0.09      0.00
  40                -333.39      0.01      0.00
  50                 406.09      0.02      0.00
  60               13164.91      9.34      8.94
  101                  0.00      0.00      0.00
  103                167.05      0.27      0.02
  105               -425.38      1.21      0.52
  107                 30.52      0.09      0.00
  109                -14.10      0.02      0.00
  111               -328.81      0.93      0.32
  112                497.97      1.41      0.70
  113                -89.07      0.25      0.03
  114                123.56      0.79      0.38
  115                -43.79      0.28      0.06
  116                  7.28      0.02      0.00
  117                640.01      1.82      1.11
  119               -736.17      2.09      1.44
  120               1164.84      3.30      3.36
  121               1045.27      2.97      2.75
  122                371.42      2.37      2.92
  123               9927.43      4.51      1.76
  125              13164.91      5.98      2.97
  129               2809.44      1.99      0.59
  131               2515.28      1.78      0.48
  133              -2072.61      2.12      0.81
  135                418.65      0.30      0.02
  137                 58.14      0.09      0.00
  145                360.51      2.30      2.76
  147                352.50      2.25      2.65
  149               -758.50      4.84     10.95
  151               -750.07      4.79     10.72
  153                419.40      1.19      0.51
  155                456.98      1.30      0.59
  159               -468.61      1.33      0.62
  161               -505.42      3.23      5.16
  163               -172.07      0.49      0.10
  169                232.14      1.48      1.22
  171                529.84      1.50      0.78
  173               7993.21      3.63      1.18
  175               7922.78      3.60      1.16
  177               7866.58      3.57      1.15
  179               7592.14      3.45      1.07
  180                  3.54      0.01      0.00
  181                  3.54      0.01      0.00
  183               7366.73      3.34      1.01
  185                -19.80      0.13      0.01
  186                350.31      2.24      2.62
  187               6738.19      3.06      0.86
  189               4962.34      2.25      0.49
  191              -1722.35      1.22      0.24
  193              -1463.66      1.04      0.17
  195                398.93      1.13      0.46
  197                319.82      0.91      0.31
  199                -13.57      0.04      0.00
  201               -333.39      0.95      0.33
  202                576.21      3.68      6.58
  203                260.79      1.66      1.52
  204                576.21      1.63      0.91
  205                350.31      0.99      0.36
  207                274.36      0.78      0.23
  209                169.72      1.08      0.68
  211                608.74      1.73      1.01
  213                180.59      0.51      0.11
  215                122.35      0.35      0.05
  217               -249.96      0.71      0.19
  219               -252.95      0.72      0.20
  221                252.95      1.61      1.43
  223                 42.02      0.12      0.01
  225                 65.19      0.18      0.02
  229               4962.34      3.52      1.45
  231               4698.50      3.33      1.31
  233               4805.84      3.41      1.59
  235                101.57      0.29      0.04
  237                471.58      1.34      0.63
  238                326.51      0.93      0.32
  239                -50.70      0.14      0.01
  240                326.51      0.93      0.32
  241                326.51      0.93      0.32
  243                325.33      0.52      0.08
  245                296.02      0.47      0.07
  247                245.52      0.39      0.05
  249                120.14      0.19      0.01
  251                 56.20      0.12      0.01
  257                 31.01      0.09      0.00
  261                 31.54      0.20      0.03
  263                 22.41      0.06      0.00
  269                 17.52      0.05      0.00
  271                 78.16      0.50      0.16
  273                -81.87      0.23      0.02
  275                -49.75      0.14      0.01
  277                  5.90      0.02      0.00
  281                -55.65      0.23      0.03
  283                -92.79      0.26      0.03
  285                 21.54      0.06      0.00
  287               -172.91      0.71      0.24
  289                406.09      1.66      1.16
  291                 74.15      0.30      0.05
  293                104.11      0.66      0.28
  295                -71.25      0.20      0.02
  297                491.00      3.13      4.89
  299                235.90      1.51      1.26
  301                235.90      1.51      1.26
  303                255.10      1.63      1.46
  305                149.01      0.42      0.07
  307                404.11      1.15      0.47
  309                209.06      1.33      1.01
  311                -86.71      0.25      0.03
  313                468.50      1.33      0.62
  315              -1862.59      1.32      0.27
  317                117.31      0.75      0.35
  319                -15.74      0.04      0.00
  321               7575.79      3.44      1.07
  323               -168.01      0.48      0.09
  325                140.24      0.90      0.48
  329              13164.91      5.98      3.01
  330                  0.00      0.00      0.00
  333                 -0.00      0.00      0.00
  10                   0.00      0.00      0.00  Pump
  335              13164.91      0.00    -93.38  Pump
   
   
  Node Results at 0:10:00 hrs:
  --------------------------------------------------------
                     Demand      Head  Pressure  Chemical
  Node                  gpm        ft       psi      mg/L
  --------------------------------------------------------
  10                   0.00    145.15     -0.80      0.00
  15                 750.07    112.70     34.97      0.00
  20                   0.00    158.13     12.62      0.00
  35                1463.66    145.48     57.62      0.00
  40                   0.00    145.08      5.71      0.00
  50                   0.00    139.72     10.06      0.00
  60                   0.00    209.00     90.56      0.00
  601                  0.00    302.40    131.03      0.00
  61                   0.00    302.40    131.03      0.00
  101                258.33    145.15     44.69      0.00
  103                181.15    145.11     44.25      0.00
  105                184.10    146.47     51.12      0.00
  107                 74.31    146.46     53.93      0.00
  109                314.70    145.12     54.08      0.00
  111                193.04    145.76     58.83      0.00
  113                 27.21    145.81     62.31      0.00
  115                 70.86    146.57     57.44      0.00
  117                160.09    149.71     58.98      0.00
  119                239.54    157.32     67.30      0.00
  120                  0.00    154.86     67.10      0.00
  121                 56.62    160.85     70.56      0.00
  123                  0.00    165.31     66.86      0.00
  125                 62.02    160.30     64.69      0.00
  127                 24.02    158.76     44.53      0.00
  129                  0.00    158.75     46.69      0.00
  131                 58.14    158.73     66.18      0.00
  139                  8.01    151.15     52.06      0.00
  141                 13.40    145.72     61.41      0.00
  143                  8.43    130.39     58.45      0.00
  145                 37.58    147.50     63.48      0.00
  147                 11.63    148.80     56.46      0.00
  149                 36.82    149.35     57.78      0.00
  151                196.49    154.61     52.48      0.00
  153                 60.07    154.73     38.36      0.00
  157                 70.43    154.86     61.42      0.00
  159                 56.20    151.47     63.03      0.00
  161                 21.49    149.18     62.91      0.00
  163                 12.81    148.71     62.27      0.00
  164                  0.00    148.71     62.27      0.00
  166                  3.54    148.71     65.30      0.00
  167                 19.80    146.83     65.79      0.00
  169                  0.00    146.83     65.79      0.00
  171                 53.50    145.74     64.88      0.00
  173                  0.00    145.71     64.87      0.00
  177                 79.11    145.47     59.57      0.00
  179                  0.00    145.46     59.56      0.00
  181                  0.00    145.49     59.57      0.00
  183                  0.00    145.46     58.26      0.00
  184                  0.00    144.03     55.47      0.00
  185                 34.88    144.69     55.76      0.00
  187                  0.00    145.43     57.60      0.00
  189                146.77    145.78     61.43      0.00
  191                111.38    145.71     52.30      0.00
  193                 96.98    145.81     55.38      0.00
  195                  0.00    145.88     56.49      0.00
  197                 23.17    145.72     53.17      0.00
  199                162.28    139.90     61.49      0.00
  201                 60.67    139.07     60.22      0.00
  203               4805.84    138.88     59.31      0.00
  204                  0.00    145.17     53.80      0.00
  205                 88.89    139.87     51.51      0.00
  206                  0.00    138.96     59.78      0.00
  207                 94.37    139.11     56.38      0.00
  208                  0.00    138.78     53.20      0.00
  209                  1.18    138.48     60.87      0.00
  211                 11.79    138.38     56.93      0.00
  213                 18.96    138.32     56.90      0.00
  215                125.38    138.12     56.81      0.00
  217                 32.94    138.10     57.24      0.00
  219                 56.20    138.08     58.10      0.00
  225                 31.01    138.09     56.37      0.00
  229                 87.28    138.25     55.35      0.00
  231                 22.41    138.24     57.73      0.00
  237                 21.23    138.37     53.89      0.00
  239                 60.67    138.38     54.33      0.00
  241                  0.00    138.38     54.33      0.00
  243                  5.90    138.38     53.90      0.00
  247                 95.72    138.39     52.17      0.00
  249                  0.00    138.39     52.17      0.00
  251                 32.86    138.42     46.98      0.00
  253                 74.15    138.65     44.48      0.00
  255                 54.93    138.70     48.40      0.00
  257                  0.00    151.70     58.37      0.00
  259                  0.00    151.26     54.71      0.00
  261                  0.00    149.66     64.85      0.00
  263                  0.00    149.49     64.78      0.00
  265                  0.00    147.43     63.88      0.00
  267                  0.00    145.84     54.09      0.00
  269                  0.00    146.18     63.34      0.00
  271                  0.00    145.56     60.47      0.00
  273                  0.00    139.87     57.14      0.00
  275                  0.00    139.10     55.94      0.00
  River           -13163.31    220.00      0.00      0.00  Reservoir
  Lake                 0.00    167.00      0.00      0.00  Reservoir
  1                  328.80    145.08      5.71      0.00  Tank
  2                 -394.66    139.72     10.06      0.00  Tank
  3                 2064.17    158.13     12.62      0.00  Tank
   
   
  Link Results at 0:10:00 hrs:
  ----------------------------------------------
                       Flow  Velocity  Headloss
  Link                  gpm       fps   /1000ft
  ----------------------------------------------
  20               -2064.17      0.09      0.00
  40                -328.80      0.01      0.00
  50                 394.66      0.02      0.00
  60               13163.31      9.34      8.93
  101                  0.00      0.00      0.00
  103                167.27      0.27      0.02
  105               -425.60      1.21      0.52
  107                 30.66      0.09      0.00
  109                -13.88      0.02      0.00
  111               -328.59      0.93      0.32
  112                498.46      1.41      0.70
  113                -88.70      0.25      0.03
  114                123.72      0.79      0.38
  115                -43.65      0.28      0.06
  116                  7.80      0.02      0.00
  117                640.37      1.82      1.11
  119               -736.68      2.09      1.44
  120               1165.49      3.31      3.37
  121               1045.86      2.97      2.75
  122                371.65      2.37      2.92
  123               9933.81      4.51      1.77
  125              13163.31      5.97      2.97
  129               2801.24      1.99      0.58
  131               2506.97      1.78      0.48
  133              -2064.17      2.11      0.81
  135                418.79      0.30      0.02
  137                 58.14      0.09      0.00
  145                360.65      2.30      2.76
  147                352.64      2.25      2.65
  149               -758.50      4.84     10.95
  151               -750.07      4.79     10.72
  153                419.26      1.19      0.51
  155                456.84      1.30      0.59
  159               -468.47      1.33      0.62
  161               -505.28      3.23      5.16
  163               -172.18      0.49      0.10
  169                232.25      1.48      1.22
  171                529.60      1.50      0.78
  173               7999.19      3.63      1.18
  175               7928.75      3.60      1.16
  177               7872.56      3.57      1.15
  179               7598.01      3.45      1.07
  180                  3.54      0.01      0.00
  181                  3.54      0.01      0.00
  183               7372.59      3.35      1.02
  185                -19.80      0.13      0.01
  186                351.05      2.24      2.63
  187               6744.03      3.06      0.86
  189               4972.41      2.26      0.49
  191              -1718.12      1.22      0.24
  193              -1463.66      1.04      0.18
  195                394.82      1.12      0.45
  197                315.71      0.90      0.30
  199                -13.10      0.04      0.00
  201               -328.80      0.93      0.32
  202                577.58      3.69      6.61
  203                261.41      1.67      1.52
  204                577.58      1.64      0.92
  205                351.05      1.00      0.36
  207                274.51      0.78      0.23
  209                169.94      1.08      0.69
  211                608.75      1.73      1.01
  213                181.11      0.51      0.11
  215                122.82      0.35      0.05
  217               -250.13      0.71      0.19
  219               -253.05      0.72      0.20
  221                253.05      1.62      1.43
  223                 42.36      0.12      0.01
  225                 65.53      0.19      0.02
  229               4972.41      3.53      1.45
  231               4706.76      3.34      1.31
  233               4805.84      3.41      1.59
  235                103.37      0.29      0.04
  237                474.40      1.35      0.64
  238                337.94      0.96      0.34
  239                -42.09      0.12      0.01
  240                337.94      0.96      0.34
  241                337.94      0.96      0.34
  243                336.76      0.54      0.08
  245                296.59      0.47      0.07
  247                245.52      0.39      0.05
  249                120.14      0.19      0.01
  251                 56.20      0.12      0.01
  257                 31.01      0.09      0.00
  261                 32.11      0.20      0.03
  263                 22.41      0.06      0.00
  269                 28.38      0.08      0.00
  271                 77.59      0.50      0.16
  273                -70.44      0.20      0.02
  275                -45.47      0.13      0.01
  277                  5.90      0.02      0.00
  281                -51.37      0.21      0.03
  283                -85.64      0.24      0.03
  285                 18.59      0.05      0.00
  287               -165.68      0.68      0.22
  289                394.66      1.61      1.10
  291                 74.15      0.30      0.05
  293                 99.91      0.64      0.26
  295                -67.05      0.19      0.02
  297                491.28      3.14      4.90
  299                236.03      1.51      1.26
  301                236.03      1.51      1.26
  303                255.25      1.63      1.46
  305                149.09      0.42      0.07
  307                404.34      1.15      0.47
  309                209.08      1.33      1.01
  311                -86.26      0.24      0.03
  313                468.40      1.33      0.62
  315              -1858.48      1.32      0.27
  317                117.66      0.75      0.35
  319                -14.29      0.04      0.00
  321               7581.67      3.44      1.07
  323               -159.75      0.45      0.08
  325                140.36      0.90      0.48
  329              13163.31      5.97      3.01
  330                  0.00      0.00      0.00
  333                 -0.00      0.00      0.00
  10                   0.00      0.00      0.00  Pump
  335              13163.31      0.00    -93.40  Pump
   
   
  Node Results at 0:15:00 hrs:
  --------------------------------------------------------
                     Demand      Head  Pressure  Chemical
  Node                  gpm        ft       psi      mg/L
  --------------------------------------------------------
  10                   0.00    145.18     -0.79      0.00
  15                 750.07    112.75     34.99      0.00
  20                   0.00    158.20     12.65      0.00
  35                1463.66    145.51     57.63      0.00
  40                   0.00    145.12      5.73      0.00
  50                   0.00    139.59     10.00      0.00
  60                   0.00    209.00     90.56      0.00
  601                  0.00    302.41    131.04      0.00
  61                   0.00    302.41    131.04      0.00
  101                258.33    145.18     44.71      0.00
  103                181.15    145.15     44.26      0.00
  105                184.10    146.50     51.13      0.00
  107                 74.31    146.50     53.94      0.00
  109                314.70    145.15     54.10      0.00
  111                193.04    145.79     58.84      0.00
  113                 27.21    145.84     62.33      0.00
  115                 70.86    146.60     57.46      0.00
  117                160.09    149.74     58.99      0.00
  119                239.54    157.36     67.32      0.00
  120                  0.00    154.90     67.12      0.00
  121                 56.62    160.89     70.58      0.00
  123                  0.00    165.35     66.88      0.00
  125                 62.02    160.35     64.72      0.00
  127                 24.02    158.82     44.55      0.00
  129                  0.00    158.81     46.71      0.00
  131                 58.14    158.79     66.20      0.00
  139                  8.01    151.21     52.09      0.00
  141                 13.40    145.77     61.43      0.00
  143                  8.43    130.44     58.47      0.00
  145                 37.58    147.55     63.50      0.00
  147                 11.63    148.85     56.48      0.00
  149                 36.82    149.40     57.80      0.00
  151                196.49    154.66     52.50      0.00
  153                 60.07    154.77     38.38      0.00
  157                 70.43    154.90     61.44      0.00
  159                 56.20    151.51     63.05      0.00
  161                 21.49    149.21     62.92      0.00
  163                 12.81    148.75     62.29      0.00
  164                  0.00    148.75     62.29      0.00
  166                  3.54    148.75     65.32      0.00
  167                 19.80    146.86     65.80      0.00
  169                  0.00    146.86     65.80      0.00
  171                 53.50    145.76     64.89      0.00
  173                  0.00    145.74     64.88      0.00
  177                 79.11    145.50     59.58      0.00
  179                  0.00    145.49     59.58      0.00
  181                  0.00    145.51     59.59      0.00
  183                  0.00    145.49     58.28      0.00
  184                  0.00    144.05     55.48      0.00
  185                 34.88    144.71     55.77      0.00
  187                  0.00    145.46     57.61      0.00
  189                146.77    145.81     61.44      0.00
  191                111.38    145.74     52.32      0.00
  193                 96.98    145.84     55.39      0.00
  195                  0.00    145.91     56.51      0.00
  197                 23.17    145.75     53.19      0.00
  199                162.28    139.91     61.49      0.00
  201                 60.67    139.08     60.22      0.00
  203               4805.84    138.89     59.31      0.00
  204                  0.00    145.20     53.82      0.00
  205                 88.89    139.88     51.51      0.00
  206                  0.00    138.94     59.77      0.00
  207                 94.37    139.11     56.37      0.00
  208                  0.00    138.76     53.19      0.00
  209                  1.18    138.44     60.85      0.00
  211                 11.79    138.33     56.91      0.00
  213                 18.96    138.27     56.88      0.00
  215                125.38    138.07     56.79      0.00
  217                 32.94    138.05     57.22      0.00
  219                 56.20    138.04     58.08      0.00
  225                 31.01    138.04     56.35      0.00
  229                 87.28    138.20     55.33      0.00
  231                 22.41    138.19     57.71      0.00
  237                 21.23    138.32     53.87      0.00
  239                 60.67    138.33     54.30      0.00
  241                  0.00    138.33     54.30      0.00
  243                  5.90    138.33     53.87      0.00
  247                 95.72    138.34     52.14      0.00
  249                  0.00    138.34     52.14      0.00
  251                 32.86    138.36     46.95      0.00
  253                 74.15    138.56     44.44      0.00
  255                 54.93    138.62     48.36      0.00
  257                  0.00    151.74     58.38      0.00
  259                  0.00    151.30     54.72      0.00
  261                  0.00    149.70     64.86      0.00
  263                  0.00    149.53     64.79      0.00
  265                  0.00    147.46     63.89      0.00
  267                  0.00    145.87     54.11      0.00
  269                  0.00    146.21     63.35      0.00
  271                  0.00    145.59     60.48      0.00
  273                  0.00    139.88     57.14      0.00
  275                  0.00    139.10     55.94      0.00
  River           -13161.72    220.00      0.00      0.00  Reservoir
  Lake                 0.00    167.00      0.00      0.00  Reservoir
  1                  324.40    145.12      5.73      0.00  Tank
  2                 -383.46    139.59     10.00      0.00  Tank
  3                 2055.78    158.20     12.65      0.00  Tank
   
   
  Link Results at 0:15:00 hrs:
  ----------------------------------------------
                       Flow  Velocity  Headloss
  Link                  gpm       fps   /1000ft
  ----------------------------------------------
  20               -2055.78      0.09      0.00
  40                -324.40      0.01      0.00
  50                 383.46      0.02      0.00
  60               13161.72      9.33      8.93
  101                  0.00      0.00      0.00
  103                167.49      0.27      0.02
  105               -425.82      1.21      0.52
  107                 30.80      0.09      0.00
  109                -13.67      0.02      0.00
  111               -328.37      0.93      0.32
  112                498.95      1.42      0.70
  113                -88.34      0.25      0.03
  114                123.88      0.79      0.38
  115                -43.51      0.28      0.05
  116                  8.33      0.02      0.00
  117                640.72      1.82      1.11
  119               -737.19      2.09      1.44
  120               1166.13      3.31      3.37
  121               1046.44      2.97      2.76
  122                371.87      2.37      2.92
  123               9940.14      4.51      1.77
  125              13161.72      5.97      2.97
  129               2793.09      1.98      0.58
  131               2498.72      1.77      0.47
  133              -2055.78      2.10      0.80
  135                418.92      0.30      0.02
  137                 58.14      0.09      0.00
  145                360.78      2.30      2.76
  147                352.77      2.25      2.65
  149               -758.50      4.84     10.95
  151               -750.07      4.79     10.72
  153                419.12      1.19      0.51
  155                456.70      1.30      0.59
  159               -468.33      1.33      0.62
  161               -505.14      3.22      5.16
  163               -172.28      0.49      0.10
  169                232.35      1.48      1.22
  171                529.35      1.50      0.78
  173               8005.12      3.63      1.18
  175               7934.68      3.60      1.16
  177               7878.49      3.58      1.15
  179               7603.85      3.45      1.08
  180                  3.54      0.01      0.00
  181                  3.54      0.01      0.00
  183               7378.40      3.35      1.02
  185                -19.80      0.13      0.01
  186                351.78      2.25      2.64
  187               6749.83      3.06      0.86
  189               4982.28      2.26      0.49
  191              -1714.05      1.22      0.23
  193              -1463.66      1.04      0.18
  195                390.85      1.11      0.45
  197                311.74      0.88      0.29
  199                -12.66      0.04      0.00
  201               -324.40      0.92      0.32
  202                578.91      3.70      6.64
  203                262.02      1.67      1.53
  204                578.91      1.64      0.92
  205                351.78      1.00      0.37
  207                274.67      0.78      0.23
  209                170.15      1.09      0.69
  211                608.77      1.73      1.01
  213                181.62      0.52      0.11
  215                123.29      0.35      0.05
  217               -250.31      0.71      0.19
  219               -253.16      0.72      0.20
  221                253.16      1.62      1.43
  223                 42.70      0.12      0.01
  225                 65.87      0.19      0.02
  229               4982.28      3.53      1.46
  231               4715.02      3.34      1.32
  233               4805.84      3.41      1.59
  235                104.98      0.30      0.04
  237                476.99      1.35      0.64
  238                349.14      0.99      0.36
  239                -33.48      0.09      0.00
  240                349.14      0.99      0.36
  241                349.14      0.99      0.36
  243                347.96      0.56      0.09
  245                297.35      0.47      0.07
  247                245.52      0.39      0.05
  249                120.14      0.19      0.01
  251                 56.20      0.12      0.01
  257                 31.01      0.09      0.00
  261                 32.87      0.21      0.03
  263                 22.41      0.06      0.00
  269                 38.82      0.11      0.01
  271                 76.83      0.49      0.16
  273                -59.24      0.17      0.01
  275                -41.28      0.12      0.01
  277                  5.90      0.02      0.00
  281                -47.18      0.19      0.02
  283                -78.63      0.22      0.02
  285                 15.69      0.04      0.00
  287               -158.59      0.65      0.20
  289                383.46      1.57      1.04
  291                 74.15      0.30      0.05
  293                 95.80      0.61      0.24
  295                -62.94      0.18      0.02
  297                491.55      3.14      4.90
  299                236.16      1.51      1.26
  301                236.16      1.51      1.26
  303                255.39      1.63      1.46
  305                149.17      0.42      0.07
  307                404.56      1.15      0.47
  309                209.10      1.33      1.01
  311                -85.80      0.24      0.03
  313                468.30      1.33      0.62
  315              -1854.51      1.32      0.27
  317                118.01      0.75      0.35
  319                -13.03      0.04      0.00
  321               7587.50      3.44      1.07
  323               -151.49      0.43      0.08
  325                140.47      0.90      0.48
  329              13161.72      5.97      3.01
  330                  0.00      0.00      0.00
  333                 -0.00      0.00      0.00
  10                   0.00      0.00      0.00  Pump
  335              13161.72      0.00    -93.41  Pump
   
   
  Node Results at 0:20:00 hrs:
  --------------------------------------------------------
                     Demand      Head  Pressure  Chemical
  Node                  gpm        ft       psi      mg/L
  --------------------------------------------------------
  10                   0.00    145.21     -0.78      0.00
  15                 750.07    112.80     35.01      0.00
  20                   0.00    158.26     12.68      0.00
  35                1463.66    145.54     57.65      0.00
  40                   0.00    145.16      5.74      0.00
  50                   0.00    139.45      9.95      0.00
  60                   0.00    209.01     90.56      0.00
  601                  0.00    302.43    131.04      0.00
  61                   0.00    302.43    131.04      0.00
  101                258.33    145.21     44.72      0.00
  103                181.15    145.18     44.27      0.00
  105                184.10    146.53     51.14      0.00
  107                 74.31    146.53     53.96      0.00
  109                314.70    145.18     54.11      0.00
  111                193.04    145.82     58.85      0.00
  113                 27.21    145.87     62.34      0.00
  115                 70.86    146.64     57.47      0.00
  117                160.09    149.78     59.01      0.00
  119                239.54    157.40     67.34      0.00
  120                  0.00    154.94     67.14      0.00
  121                 56.62    160.94     70.60      0.00
  123                  0.00    165.40     66.90      0.00
  125                 62.02    160.41     64.74      0.00
  127                 24.02    158.88     44.58      0.00
  129                  0.00    158.87     46.74      0.00
  131                 58.14    158.85     66.23      0.00
  139                  8.01    151.26     52.11      0.00
  141                 13.40    145.82     61.45      0.00
  143                  8.43    130.49     58.49      0.00
  145                 37.58    147.60     63.52      0.00
  147                 11.63    148.90     56.50      0.00
  149                 36.82    149.45     57.82      0.00
  151                196.49    154.71     52.52      0.00
  153                 60.07    154.82     38.40      0.00
  157                 70.43    154.94     61.46      0.00
  159                 56.20    151.54     63.06      0.00
  161                 21.49    149.24     62.93      0.00
  163                 12.81    148.78     62.30      0.00
  164                  0.00    148.78     62.30      0.00
  166                  3.54    148.78     65.33      0.00
  167                 19.80    146.89     65.81      0.00
  169                  0.00    146.89     65.81      0.00
  171                 53.50    145.79     64.90      0.00
  173                  0.00    145.77     64.89      0.00
  177                 79.11    145.53     59.59      0.00
  179                  0.00    145.52     59.59      0.00
  181                  0.00    145.54     59.60      0.00
  183                  0.00    145.52     58.29      0.00
  184                  0.00    144.07     55.49      0.00
  185                 34.88    144.74     55.78      0.00
  187                  0.00    145.49     57.62      0.00
  189                146.77    145.84     61.46      0.00
  191                111.38    145.77     52.33      0.00
  193                 96.98    145.87     55.41      0.00
  195                  0.00    145.94     56.52      0.00
  197                 23.17    145.78     53.20      0.00
  199                162.28    139.91     61.49      0.00
  201                 60.67    139.08     60.22      0.00
  203               4805.84    138.89     59.31      0.00
  204                  0.00    145.23     53.83      0.00
  205                 88.89    139.88     51.51      0.00
  206                  0.00    138.93     59.77      0.00
  207                 94.37    139.10     56.37      0.00
  208                  0.00    138.74     53.18      0.00
  209                  1.18    138.40     60.83      0.00
  211                 11.79    138.29     56.89      0.00
  213                 18.96    138.22     56.86      0.00
  215                125.38    138.02     56.77      0.00
  217                 32.94    138.00     57.20      0.00
  219                 56.20    137.99     58.06      0.00
  225                 31.01    137.99     56.33      0.00
  229                 87.28    138.14     55.31      0.00
  231                 22.41    138.14     57.69      0.00
  237                 21.23    138.27     53.84      0.00
  239                 60.67    138.27     54.28      0.00
  241                  0.00    138.27     54.28      0.00
  243                  5.90    138.27     53.85      0.00
  247                 95.72    138.28     52.12      0.00
  249                  0.00    138.28     52.12      0.00
  251                 32.86    138.30     46.93      0.00
  253                 74.15    138.48     44.41      0.00
  255                 54.93    138.54     48.33      0.00
  257                  0.00    151.78     58.40      0.00
  259                  0.00    151.33     54.74      0.00
  261                  0.00    149.73     64.88      0.00
  263                  0.00    149.57     64.81      0.00
  265                  0.00    147.49     63.91      0.00
  267                  0.00    145.90     54.12      0.00
  269                  0.00    146.24     63.36      0.00
  271                  0.00    145.61     60.49      0.00
  273                  0.00    139.88     57.15      0.00
  275                  0.00    139.10     55.94      0.00
  River           -13160.13    220.00      0.00      0.00  Reservoir
  Lake                 0.00    167.00      0.00      0.00  Reservoir
  1                  320.17    145.16      5.74      0.00  Tank
  2                 -372.48    139.45      9.95      0.00  Tank
  3                 2047.44    158.26     12.68      0.00  Tank
   
   
  Link Results at 0:20:00 hrs:
  ----------------------------------------------
                       Flow  Velocity  Headloss
  Link                  gpm       fps   /1000ft
  ----------------------------------------------
  20               -2047.44      0.09      0.00
  40                -320.17      0.01      0.00
  50                 372.48      0.02      0.00
  60               13160.13      9.33      8.93
  101                  0.00      0.00      0.00
  103                167.70      0.27      0.02
  105               -426.03      1.21      0.52
  107                 30.94      0.09      0.00
  109                -13.45      0.02      0.00
  111               -328.15      0.93      0.32
  112                499.43      1.42      0.70
  113                -87.97      0.25      0.03
  114                124.04      0.79      0.38
  115                -43.37      0.28      0.05
  116                  8.85      0.03      0.00
  117                641.08      1.82      1.11
  119               -737.69      2.09      1.44
  120               1166.76      3.31      3.37
  121               1047.03      2.97      2.76
  122                372.09      2.37      2.93
  123               9946.42      4.51      1.77
  125              13160.13      5.97      2.97
  129               2784.99      1.98      0.58
  131               2490.52      1.77      0.47
  133              -2047.44      2.09      0.79
  135                419.06      0.30      0.02
  137                 58.14      0.09      0.00
  145                360.92      2.30      2.77
  147                352.91      2.25      2.65
  149               -758.50      4.84     10.95
  151               -750.07      4.79     10.72
  153                418.99      1.19      0.51
  155                456.56      1.30      0.59
  159               -468.19      1.33      0.62
  161               -505.01      3.22      5.15
  163               -172.39      0.49      0.10
  169                232.46      1.48      1.22
  171                529.11      1.50      0.78
  173               8011.01      3.64      1.19
  175               7940.58      3.60      1.17
  177               7884.38      3.58      1.15
  179               7609.64      3.45      1.08
  180                  3.54      0.01      0.00
  181                  3.54      0.01      0.00
  183               7384.17      3.35      1.02
  185                -19.80      0.13      0.01
  186                352.49      2.25      2.65
  187               6755.58      3.07      0.86
  189               4991.96      2.27      0.49
  191              -1710.11      1.21      0.23
  193              -1463.66      1.04      0.18
  195                387.03      1.10      0.44
  197                307.92      0.87      0.29
  199                -12.25      0.03      0.00
  201               -320.17      0.91      0.31
  202                580.21      3.70      6.66
  203                262.60      1.68      1.54
  204                580.21      1.65      0.92
  205                352.49      1.00      0.37
  207                274.85      0.78      0.23
  209                170.36      1.09      0.69
  211                608.79      1.73      1.01
  213                182.13      0.52      0.11
  215                123.77      0.35      0.05
  217               -250.48      0.71      0.20
  219               -253.26      0.72      0.20
  221                253.26      1.62      1.44
  223                 43.04      0.12      0.01
  225                 66.21      0.19      0.02
  229               4991.96      3.54      1.46
  231               4723.31      3.35      1.32
  233               4805.84      3.41      1.59
  235                106.38      0.30      0.04
  237                479.34      1.36      0.65
  238                360.12      1.02      0.38
  239                -24.84      0.07      0.00
  240                360.12      1.02      0.38
  241                360.12      1.02      0.38
  243                358.94      0.57      0.09
  245                298.26      0.48      0.07
  247                245.52      0.39      0.05
  249                120.14      0.19      0.01
  251                 56.20      0.12      0.01
  257                 31.01      0.09      0.00
  261                 33.79      0.22      0.03
  263                 22.41      0.06      0.00
  269                 48.89      0.14      0.01
  271                 75.91      0.48      0.15
  273                -48.26      0.14      0.01
  275                -37.16      0.11      0.01
  277                  5.90      0.02      0.00
  281                -43.07      0.18      0.02
  283                -71.76      0.20      0.02
  285                 12.86      0.04      0.00
  287               -151.64      0.62      0.19
  289                372.48      1.52      0.99
  291                 74.15      0.30      0.05
  293                 91.76      0.59      0.22
  295                -58.90      0.17      0.01
  297                491.83      3.14      4.91
  299                236.29      1.51      1.26
  301                236.29      1.51      1.26
  303                255.53      1.63      1.46
  305                149.25      0.42      0.07
  307                404.78      1.15      0.47
  309                209.12      1.33      1.01
  311                -85.35      0.24      0.03
  313                468.21      1.33      0.62
  315              -1850.69      1.31      0.27
  317                118.36      0.76      0.35
  319                -11.98      0.03      0.00
  321               7593.29      3.45      1.07
  323               -143.20      0.41      0.07
  325                140.58      0.90      0.48
  329              13160.13      5.97      3.01
  330                  0.00      0.00      0.00
  333                 -0.00      0.00      0.00
  10                   0.00      0.00      0.00  Pump
  335              13160.13      0.00    -93.42  Pump
   
   
  Node Results at 0:25:00 hrs:
  --------------------------------------------------------
                     Demand      Head  Pressure  Chemical
  Node                  gpm        ft       psi      mg/L
  --------------------------------------------------------
  10                   0.00    145.24     -0.76      0.00
  15                 750.07    112.85     35.03      0.00
  20                   0.00    158.33     12.71      0.00
  35                1463.66    145.57     57.66      0.00
  40                   0.00    145.19      5.76      0.00
  50                   0.00    139.33      9.89      0.00
  60                   0.00    209.01     90.56      0.00
  601                  0.00    302.45    131.05      0.00
  61                   0.00    302.45    131.05      0.00
  101                258.33    145.24     44.73      0.00
  103                181.15    145.21     44.29      0.00
  105                184.10    146.57     51.16      0.00
  107                 74.31    146.56     53.97      0.00
  109                314.70    145.21     54.12      0.00
  111                193.04    145.85     58.87      0.00
  113                 27.21    145.90     62.35      0.00
  115                 70.86    146.67     57.48      0.00
  117                160.09    149.82     59.02      0.00
  119                239.54    157.45     67.36      0.00
  120                  0.00    154.98     67.15      0.00
  121                 56.62    160.99     70.62      0.00
  123                  0.00    165.45     66.92      0.00
  125                 62.02    160.46     64.76      0.00
  127                 24.02    158.94     44.61      0.00
  129                  0.00    158.93     46.77      0.00
  131                 58.14    158.91     66.26      0.00
  139                  8.01    151.32     52.13      0.00
  141                 13.40    145.87     61.47      0.00
  143                  8.43    130.54     58.51      0.00
  145                 37.58    147.65     63.54      0.00
  147                 11.63    148.95     56.52      0.00
  149                 36.82    149.50     57.84      0.00
  151                196.49    154.75     52.54      0.00
  153                 60.07    154.87     38.42      0.00
  157                 70.43    154.98     61.48      0.00
  159                 56.20    151.58     63.08      0.00
  161                 21.49    149.28     62.95      0.00
  163                 12.81    148.81     62.31      0.00
  164                  0.00    148.81     62.31      0.00
  166                  3.54    148.81     65.35      0.00
  167                 19.80    146.92     65.83      0.00
  169                  0.00    146.92     65.83      0.00
  171                 53.50    145.82     64.92      0.00
  173                  0.00    145.79     64.91      0.00
  177                 79.11    145.56     59.60      0.00
  179                  0.00    145.55     59.60      0.00
  181                  0.00    145.57     59.61      0.00
  183                  0.00    145.55     58.30      0.00
  184                  0.00    144.10     55.50      0.00
  185                 34.88    144.77     55.79      0.00
  187                  0.00    145.52     57.64      0.00
  189                146.77    145.86     61.47      0.00
  191                111.38    145.80     52.34      0.00
  193                 96.98    145.90     55.42      0.00
  195                  0.00    145.97     56.53      0.00
  197                 23.17    145.81     53.21      0.00
[...]
  219                 69.00    137.30     57.76      0.00
  225                 38.08    137.31     56.03      0.00
  229                107.18    137.49     55.03      0.00
  231                 27.52    137.49     57.41      0.00
  237                 26.07    137.65     53.58      0.00
  239                 74.50    137.65     54.01      0.00
  241                  0.00    137.65     54.01      0.00
  243                  7.25    137.65     53.58      0.00
  247                117.53    137.66     51.85      0.00
  249                  0.00    137.66     51.85      0.00
  251                 40.35    137.67     46.65      0.00
  253                 91.05    137.84     44.13      0.00
  255                 67.45    137.92     48.06      0.00
  257                  0.00    150.72     57.94      0.00
  259                  0.00    150.26     54.28      0.00
  261                  0.00    148.61     64.39      0.00
  263                  0.00    148.43     64.32      0.00
  265                  0.00    147.53     63.93      0.00
  267                  0.00    145.80     54.07     93.17
  269                  0.00    146.31     63.40      8.45
  271                  0.00    145.92     60.63    179.20
  273                  0.00    140.05     57.22    179.28
  275                  0.00    139.29     56.02      0.00
  River           -13237.64    220.00      0.00      0.00  Reservoir
  Lake                 0.00    167.00      0.00      0.00  Reservoir
  1                 -651.61    147.27      6.66      0.00  Tank
  2                 -403.23    138.98      9.74      0.00  Tank
  3                  563.76    159.42     13.18      0.00  Tank
   
   
  Link Results at 23:55:00 hrs:
  ----------------------------------------------
                       Flow  Velocity  Headloss
  Link                  gpm       fps   /1000ft
  ----------------------------------------------
  20                -563.76      0.02      0.00
  40                 651.61      0.03      0.00
  50                 403.23      0.02      0.00
  60               13237.64      9.39      9.03
  101                  0.00      0.00      0.00
  103                126.60      0.20      0.01
  105               -443.82      1.26      0.56
  107                -10.14      0.03      0.00
  109                -95.84      0.15      0.01
  111               -482.28      1.37      0.66
  112                430.63      1.22      0.53
  113               -194.06      0.55      0.12
  114                 88.92      0.57      0.21
  115               -101.39      0.65      0.26
  116               -138.56      0.39      0.07
  117                659.74      1.87      1.17
  119               -707.94      2.01      1.34
  120               1197.60      3.40      3.54
  121               1064.05      3.02      2.84
  122                366.66      2.34      2.85
  123               9508.80      4.32      1.63
  125              11141.39      5.06      2.18
  129               1196.40      0.85      0.12
  131                914.41      0.65      0.07
  133               -563.76      0.58      0.07
  135                321.17      0.23      0.01
  137                 71.39      0.11      0.00
  145                249.77      1.59      1.40
  147                239.94      1.53      1.30
  149               -377.78      2.41      3.01
  151               -367.43      2.35      2.86
  153                154.30      0.44      0.08
  155                200.44      0.57      0.13
  159               -214.72      0.61      0.15
  161               -259.92      1.66      1.51
  163               -132.07      0.37      0.06
  169                205.84      1.31      0.98
  171                369.14      1.05      0.40
  173               7647.93      3.47      1.09
  175               7561.44      3.43      1.07
  177               7492.44      3.40      1.05
  179               7201.24      3.27      0.97
  180                  4.34      0.01      0.00
  181                  4.34      0.01      0.00
  183               6962.16      3.16      0.91
  185                -24.32      0.16      0.02
  186                291.91      1.86      1.87
  187               6316.52      2.87      0.76
  189               5010.59      2.27      0.50
  191              -1240.23      0.88      0.13
  193              -1591.02      1.13      0.20
  195               -241.70      0.69      0.18
  197               -338.84      0.96      0.34
  199                312.77      0.89      0.29
  201                651.61      1.85      1.15
  202                568.25      3.63      6.41
  203                319.17      2.04      2.20
  204                568.25      1.61      0.89
  205                291.91      0.83      0.26
  207                  6.40      0.02      0.00
  209                228.67      1.46      1.19
  211                621.32      1.76      1.05
  213                 63.24      0.18      0.02
  215                -96.93      0.27      0.03
  217               -323.11      0.92      0.31
  219               -264.81      0.75      0.22
  221                264.81      1.69      1.56
  223               -123.09      0.35      0.05
  225                -94.63      0.27      0.03
  229               5010.59      3.55      1.47
  231               4660.44      3.31      1.29
  233               4583.68      3.25      1.45
  235                150.88      0.43      0.08
  237                493.76      1.40      0.69
  238                496.37      1.41      0.69
  239                118.49      0.34      0.05
  240                496.37      1.41      0.69
  241                496.37      1.41      0.69
  243                494.91      0.79      0.17
  245                372.42      0.59      0.10
  247                301.49      0.48      0.07
  249                147.53      0.24      0.02
  251                 69.00      0.14      0.01
  257                 38.08      0.11      0.01
  261                 47.66      0.30      0.07
  263                 27.52      0.08      0.00
  269                108.01      0.31      0.04
  271                 87.04      0.56      0.20
  273                 -5.10      0.01      0.00
  275                -25.36      0.07      0.00
  277                  7.25      0.02      0.00
  281                -32.61      0.13      0.01
  283                -54.24      0.15      0.01
  285                  1.84      0.01      0.00
  287               -151.98      0.62      0.19
  289                403.23      1.65      1.15
  291                 91.05      0.37      0.07
  293                 92.75      0.59      0.22
  295                -52.40      0.15      0.01
  297                500.21      3.19      5.06
  299                240.50      1.54      1.30
  301                240.50      1.54      1.30
  303                259.71      1.66      1.50
  305                159.54      0.45      0.08
  307                419.24      1.19      0.51
  309                219.01      1.40      1.10
  311               -315.94      0.90      0.30
  313                512.23      1.45      0.73
  315              -1349.32      0.96      0.15
  317                116.22      0.74      0.34
  319                 34.66      0.10      0.01
  321               7181.17      3.26      0.97
  323                  2.27      0.01      0.00
  325                109.09      0.70      0.30
  329              13237.64      6.01      3.04
  330                  0.00      0.00      0.00
  333                 -0.00      0.00      0.00
  10                   0.00      0.00      0.00  Pump
  335              13237.64      0.00    -92.74  Pump
   
   
  Node Results at 24:00:00 hrs:
  --------------------------------------------------------
                     Demand      Head  Pressure  Chemical
  Node                  gpm        ft       psi      mg/L
  --------------------------------------------------------
  10                   0.00    146.78     -0.09      0.00
  15                 750.07    114.09     35.57      0.00
  20                   0.00    159.43     13.19      0.00
  35                1463.66    147.20     58.37    151.90
  40                   0.00    147.19      6.62      0.00
  50                   0.00    138.84      9.68      0.00
  60                   0.00    209.07     90.59      0.00
  601                  0.00    302.88    131.24      0.00
  61                   0.00    302.88    131.24      0.00
  101                258.33    146.78     45.40      0.00
  103                181.15    146.75     44.96      0.00
  105                184.10    148.09     51.82      0.00
  107                 74.31    148.08     54.63      0.00
  109                314.70    146.75     54.79      0.00
  111                193.04    147.41     59.54      0.00
  113                 27.21    147.47     63.03      0.00
  115                 70.86    148.20     58.15      0.00
  117                160.09    151.28     59.66      0.00
  119                239.54    158.77     67.93      0.00
  120                  0.00    156.35     67.75      0.00
  121                 56.62    162.24     71.17      0.00
  123                  0.00    166.67     67.45      0.00
  125                 62.02    161.68     65.29      0.00
  127                 24.02    160.09     45.10      0.00
  129                  0.00    160.08     47.26      0.00
  131                 58.14    160.06     66.75      0.00
  139                  8.01    152.52     52.65      0.00
  141                 13.40    147.12     62.01      0.00
  143                  8.43    131.79     59.05      0.00
  145                 37.58    148.90     64.09      0.00
  147                 11.63    150.21     57.07      0.00
  149                 36.82    150.76     58.39      0.00
  151                196.49    156.05     53.10      0.00
  153                 60.07    156.16     38.98      0.00
  157                 70.43    156.35     62.07      0.00
  159                 56.20    153.03     63.71      0.00
  161                 21.49    150.78     63.60      0.00
  163                 12.81    150.33     62.97      0.00
  164                  0.00    150.33     62.97      0.00
  166                  3.54    150.33     66.00      0.00
  167                 19.80    148.48     66.50      0.00
  169                  0.00    148.48     66.50      0.00
  171                 53.50    147.40     65.60      0.00
  173                  0.00    147.38     65.59     17.97
  177                 79.11    147.21     60.32      0.00
  179                  0.00    147.20     60.32      0.00
  181                  0.00    147.21     60.32    151.97
  183                  0.00    147.20     59.02      0.00
  184                  0.00    145.62     56.17     68.71
  185                 34.88    146.33     56.47     68.60
  187                  0.00    147.09     58.32     96.29
  189                146.77    147.46     62.16     36.24
  191                111.38    147.36     53.02    143.94
  193                 96.98    147.47     56.10     90.29
  195                  0.00    147.54     57.21      0.00
  197                 23.17    147.37     53.89     19.86
  199                162.28    141.22     62.06    179.98
  201                 60.67    140.35     60.77    180.00
  203               4805.84    140.16     59.86    179.92
  204                  0.00    146.82     54.52    136.77
  205                 88.89    141.18     52.08      0.00
  206                  0.00    139.97     60.21      0.00
  207                 94.37    140.30     56.89      0.00
  208                  0.00    139.59     53.55      0.00
  209                  1.18    138.93     61.06      0.00
  211                 11.79    138.71     57.07      0.00
  213                 18.96    138.63     57.04      0.00
  215                125.38    138.43     56.95      0.00
  217                 32.94    138.41     57.38      0.00
  219                 56.20    138.40     58.24      0.00
  225                 31.01    138.41     56.51      0.00
  229                 87.28    138.43     55.43      0.00
  231                 22.41    138.42     57.81      0.00
  237                 21.23    138.49     53.94      0.00
  239                 60.67    138.47     54.37      0.00
  241                  0.00    138.47     54.37      0.00
  243                  5.90    138.47     53.93      0.00
  247                 95.72    138.47     52.20      0.00
  249                  0.00    138.47     52.20      0.00
  251                 32.86    138.47     47.00      0.00
  253                 74.15    138.45     44.39      0.00
  255                 54.93    138.50     48.31      0.00
  257                  0.00    153.24     59.03      0.00
  259                  0.00    152.80     55.38      0.00
  261                  0.00    151.23     65.53      0.00
  263                  0.00    151.07     65.46      0.00
  265                  0.00    149.07     64.59      0.00
  267                  0.00    147.51     54.82     20.11
  269                  0.00    147.85     64.06      0.00
  271                  0.00    147.26     61.21    164.58
  273                  0.00    141.18     57.71    180.00
  275                  0.00    140.35     56.48      0.00
  River           -13117.13    220.00      0.00      0.00  Reservoir
  Lake                 0.00    167.00      0.00      0.00  Reservoir
  1                   58.82    147.19      6.62      0.00  Tank
  2                 -216.88    138.84      9.68      0.00  Tank
  3                 2110.20    159.43     13.19      0.00  Tank
   
   
  Link Results at 24:00:00 hrs:
  ----------------------------------------------
                       Flow  Velocity  Headloss
  Link                  gpm       fps   /1000ft
  ----------------------------------------------
  20               -2110.20      0.09      0.00
  40                 -58.82      0.00      0.00
  50                 216.88      0.01      0.00
  60               13117.13      9.30      8.88
  101                  0.00      0.00      0.00
  103                164.07      0.26      0.02
  105               -422.41      1.20      0.51
  107                 28.61      0.08      0.00
  109                -17.08      0.03      0.00
  111               -331.78      0.94      0.33
  112                491.36      1.39      0.68
  113                -95.37      0.27      0.03
  114                121.23      0.77      0.37
  115                -45.70      0.29      0.06
  116                 -1.36      0.00      0.00
  117                635.12      1.80      1.09
  119               -729.14      2.07      1.41
  120               1155.88      3.28      3.31
  121               1037.16      2.94      2.71
  122                368.47      2.35      2.87
  123               9846.94      4.47      1.74
  125              13117.13      5.95      2.95
  129               2845.10      2.02      0.60
  131               2551.98      1.81      0.49
  133              -2110.20      2.16      0.84
  135                417.77      0.30      0.02
  137                 58.14      0.09      0.00
  145                359.63      2.30      2.75
  147                351.62      2.24      2.64
  149               -758.50      4.84     10.95
  151               -750.07      4.79     10.72
  153                420.28      1.19      0.51
  155                457.86      1.30      0.60
  159               -469.48      1.33      0.62
  161               -506.30      3.23      5.18
  163               -171.03      0.49      0.10
  169                231.10      1.48      1.21
  171                531.76      1.51      0.79
  173               7919.77      3.59      1.16
  175               7849.33      3.56      1.14
  177               7793.14      3.54      1.13
  179               7520.80      3.41      1.05
  180                  3.54      0.01      0.00
  181                  3.54      0.01      0.00
  183               7297.59      3.31      1.00
  185                -19.80      0.13      0.01
  186                355.31      2.27      2.69
  187               6680.68      3.03      0.85
  189               5128.92      2.33      0.52
  191              -1498.26      1.06      0.18
  193              -1463.66      1.04      0.18
  195                170.48      0.48      0.10
  197                 91.37      0.26      0.03
  199                 32.55      0.09      0.00
  201                -58.82      0.17      0.01
  202                598.85      3.82      7.07
  203                278.43      1.78      1.71
  204                598.85      1.70      0.98
  205                355.31      1.01      0.37
  207                245.88      0.70      0.19
  209                175.67      1.12      0.73
  211                597.11      1.69      0.98
  213                179.64      0.51      0.11
  215                107.08      0.30      0.04
  217               -252.29      0.72      0.20
  219               -250.85      0.71      0.20
  221                250.85      1.60      1.41
  223                 38.74      0.11      0.01
  225                 61.91      0.18      0.01
  229               5128.92      3.64      1.54
  231               4842.09      3.43      1.38
  233               4805.84      3.41      1.59
  235                124.56      0.35      0.05
  237                512.18      1.45      0.73
  238                515.72      1.46      0.74
  239                 97.91      0.28      0.03
  240                515.72      1.46      0.74
  241                515.72      1.46      0.74
  243                514.54      0.82      0.18
  245                322.35      0.51      0.08
  247                245.52      0.39      0.05
  249                120.14      0.19      0.01
  251                 56.20      0.12      0.01
  257                 31.01      0.09      0.00
  261                 57.87      0.37      0.09
  263                 22.41      0.06      0.00
  269                180.40      0.51      0.11
  271                 51.82      0.33      0.08
  273                107.34      0.30      0.04
  275                 21.14      0.06      0.00
  277                  5.90      0.02      0.00
  281                 15.24      0.06      0.00
  283                 25.53      0.07      0.00
  285                -26.63      0.08      0.00
  287                -53.85      0.22      0.03
  289                216.88      0.89      0.36
  291                 74.15      0.30      0.05
  293                 33.95      0.22      0.03
  295                 -1.10      0.00      0.00
  297                487.19      3.11      4.82
  299                234.07      1.49      1.24
  301                234.07      1.49      1.24
  303                253.12      1.62      1.43
  305                147.93      0.42      0.07
  307                401.05      1.14      0.47
  309                206.86      1.32      0.99
  311                -99.77      0.28      0.04
  313                461.23      1.31      0.60
  315              -1634.14      1.16      0.22
  317                122.33      0.78      0.37
  319                  2.22      0.01      0.00
  321               7504.45      3.41      1.05
  323                -24.42      0.07      0.00
  325                135.88      0.87      0.45
  329              13117.13      5.95      2.99
  330                  0.00      0.00      0.00
  333                 -0.00      0.00      0.00
  10                   0.00      0.00      0.00  Pump
  335              13117.13      0.00    -93.80  Pump
   
  Analysis ended Wed May 06 17:28:33 2020
