  Page 1                                    Wed May 06 17:30:24 2020

  ******************************************************************
  *                           E P A N E T                          *
  *                   Hydraulic and Water Quality                  *
  *                   Analysis for Pipe Networks                   *
  *                         Version 2.00.12                        *
  ******************************************************************
  
  Analysis begun Wed May 06 17:30:24 2020

   
  Hydraulic Status:
  -----------------------------------------------------------------------
     0:00:00: Balanced after 5 trials
     0:00:00: Reservoir River is emptying
     0:00:00: Reservoir Lake is closed
     0:00:00: Tank 1 is filling at 13.10 ft
     0:00:00: Tank 2 is emptying at 23.50 ft
     0:00:00: Tank 3 is filling at 29.00 ft
   
     0:05:00: Balanced after 2 trials
   
     0:10:00: Balanced after 2 trials
   
     0:15:00: Balanced after 2 trials
   
     0:20:00: Balanced after 2 trials
   
     0:25:00: Balanced after 2 trials
   
     0:30:00: Balanced after 2 trials
   
     0:35:00: Balanced after 2 trials
   
     0:40:00: Balanced after 2 trials
   
     0:45:00: Balanced after 2 trials
   
     0:50:00: Balanced after 2 trials
   
     0:55:00: Balanced after 2 trials
   
     1:00:00: Pump 10 changed by timer control
     1:00:00: Balanced after 7 trials
     1:00:00: Reservoir Lake is emptying
     1:00:00: Pump 10 changed from closed to open
   
     1:05:00: Balanced after 2 trials
   
     1:10:00: Balanced after 2 trials
   
     1:15:00: Balanced after 2 trials
   
     1:20:00: Balanced after 2 trials
   
     1:25:00: Balanced after 2 trials
   
     1:30:00: Balanced after 2 trials
   
     1:35:00: Balanced after 2 trials
   
     1:40:00: Balanced after 2 trials
   
     1:45:00: Balanced after 2 trials
   
     1:50:00: Balanced after 2 trials
   
     1:55:00: Balanced after 2 trials
   
     2:00:00: Balanced after 4 trials
     2:00:00: Tank 2 is filling at 20.06 ft
   
     2:05:00: Balanced after 1 trials
   
     2:10:00: Balanced after 1 trials
   
     2:15:00: Balanced after 1 trials
   
     2:20:00: Balanced after 1 trials
   
     2:25:00: Balanced after 1 trials
   
     2:30:00: Balanced after 1 trials
   
     2:35:00: Balanced after 1 trials
   
     2:40:00: Balanced after 1 trials
   
     2:45:00: Balanced after 1 trials
   
     2:50:00: Balanced after 1 trials
   
     2:55:00: Balanced after 1 trials
   
     3:00:00: Balanced after 3 trials
   
     3:05:00: Balanced after 1 trials
   
     3:10:00: Balanced after 1 trials
   
     3:15:00: Balanced after 1 trials
   
     3:20:00: Balanced after 1 trials
   
     3:25:00: Balanced after 1 trials
   
     3:30:00: Balanced after 1 trials
   
     3:35:00: Balanced after 1 trials
   
     3:40:00: Balanced after 1 trials
   
     3:45:00: Balanced after 1 trials
   
     3:50:00: Balanced after 1 trials
   
     3:55:00: Balanced after 1 trials
   
     4:00:00: Balanced after 3 trials
   
     4:05:00: Balanced after 1 trials
   
     4:10:00: Balanced after 1 trials
   
     4:15:00: Balanced after 1 trials
   
     4:20:00: Balanced after 1 trials
   
     4:25:00: Balanced after 1 trials
   
     4:30:00: Balanced after 1 trials
   
     4:31:26: Pump 335 changed by Tank 1 control
     4:31:26: Pipe 330 changed by Tank 1 control
     4:31:26: Balanced after 4 trials
     4:31:26: Pipe 330 changed from closed to open
     4:31:26: Pump 335 changed from open to closed
   
     4:35:00: Balanced after 2 trials
   
     4:40:00: Balanced after 2 trials
   
     4:45:00: Balanced after 2 trials
   
     4:50:00: Balanced after 2 trials
   
     4:55:00: Balanced after 2 trials
   
     5:00:00: Balanced after 3 trials
     5:00:00: Tank 3 is emptying at 34.50 ft
   
     5:05:00: Balanced after 2 trials
   
     5:10:00: Balanced after 2 trials
   
     5:15:00: Balanced after 2 trials
   
     5:20:00: Balanced after 2 trials
   
     5:25:00: Balanced after 2 trials
   
     5:30:00: Balanced after 2 trials
   
     5:35:00: Balanced after 2 trials
   
     5:40:00: Balanced after 2 trials
   
     5:45:00: Balanced after 2 trials
   
     5:50:00: Balanced after 2 trials
   
     5:55:00: Balanced after 2 trials
   
     6:00:00: Balanced after 3 trials
     6:00:00: Tank 3 is filling at 34.19 ft
   
     6:05:00: Balanced after 1 trials
   
     6:10:00: Balanced after 1 trials
   
     6:15:00: Balanced after 1 trials
   
     6:20:00: Balanced after 1 trials
   
     6:25:00: Balanced after 1 trials
   
     6:30:00: Balanced after 1 trials
   
     6:35:00: Balanced after 1 trials
   
     6:40:00: Balanced after 1 trials
   
     6:45:00: Balanced after 1 trials
   
     6:50:00: Balanced after 1 trials
   
     6:55:00: Balanced after 1 trials
   
     7:00:00: Balanced after 4 trials
   
     7:05:00: Balanced after 2 trials
   
     7:10:00: Balanced after 2 trials
   
     7:15:00: Balanced after 2 trials
   
     7:20:00: Balanced after 2 trials
   
     7:25:00: Balanced after 1 trials
   
     7:30:00: Balanced after 1 trials
   
     7:35:00: Balanced after 1 trials
   
     7:40:00: Balanced after 1 trials
   
     7:45:00: Balanced after 1 trials
   
     7:50:00: Balanced after 1 trials
   
     7:55:00: Balanced after 1 trials
   
     8:00:00: Balanced after 3 trials
   
     8:05:00: Balanced after 1 trials
   
     8:10:00: Balanced after 1 trials
   
     8:15:00: Balanced after 1 trials
   
     8:20:00: Balanced after 1 trials
   
     8:25:00: Balanced after 1 trials
   
     8:30:00: Balanced after 1 trials
   
     8:35:00: Balanced after 1 trials
   
     8:40:00: Balanced after 1 trials
   
     8:45:00: Balanced after 1 trials
   
     8:50:00: Balanced after 1 trials
   
     8:55:00: Balanced after 1 trials
   
     9:00:00: Balanced after 3 trials
     9:00:00: Tank 1 is emptying at 21.66 ft
     9:00:00: Tank 2 is emptying at 26.31 ft
     9:00:00: Tank 3 is emptying at 35.06 ft
   
     9:05:00: Balanced after 1 trials
   
     9:10:00: Balanced after 1 trials
   
     9:15:00: Balanced after 1 trials
   
     9:20:00: Balanced after 1 trials
   
     9:25:00: Balanced after 1 trials
   
     9:30:00: Balanced after 1 trials
   
     9:35:00: Balanced after 1 trials
   
     9:40:00: Balanced after 1 trials
   
     9:45:00: Balanced after 1 trials
   
     9:50:00: Balanced after 1 trials
   
     9:55:00: Balanced after 1 trials
   
    10:00:00: Balanced after 3 trials
   
    10:05:00: Balanced after 1 trials
   
    10:10:00: Balanced after 1 trials
   
    10:15:00: Balanced after 1 trials
   
    10:20:00: Balanced after 1 trials
   
    10:25:00: Balanced after 1 trials
   
    10:30:00: Balanced after 1 trials
   
    10:35:00: Balanced after 1 trials
   
    10:40:00: Balanced after 1 trials
   
    10:45:00: Balanced after 1 trials
   
    10:50:00: Balanced after 1 trials
   
    10:55:00: Balanced after 1 trials
   
    11:00:00: Balanced after 4 trials
    11:00:00: Tank 1 is filling at 20.75 ft
    11:00:00: Tank 2 is filling at 25.72 ft
   
    11:05:00: Balanced after 2 trials
   
    11:10:00: Balanced after 2 trials
   
    11:15:00: Balanced after 2 trials
   
    11:20:00: Balanced after 2 trials
   
    11:25:00: Balanced after 2 trials
   
    11:30:00: Balanced after 2 trials
   
    11:35:00: Balanced after 2 trials
    11:35:00: Tank 1 is emptying at 20.78 ft
   
    11:40:00: Balanced after 2 trials
   
    11:45:00: Balanced after 2 trials
   
    11:50:00: Balanced after 2 trials
   
    11:55:00: Balanced after 2 trials
   
    12:00:00: Balanced after 3 trials
    12:00:00: Tank 1 is filling at 20.76 ft
   
    12:05:00: Balanced after 2 trials
   
    12:10:00: Balanced after 2 trials
   
    12:15:00: Balanced after 2 trials
   
    12:20:00: Balanced after 2 trials
   
    12:25:00: Balanced after 2 trials
   
    12:30:00: Balanced after 2 trials
   
    12:35:00: Balanced after 2 trials
   
    12:40:00: Balanced after 2 trials
   
    12:45:00: Balanced after 2 trials
   
    12:50:00: Balanced after 2 trials
   
    12:55:00: Balanced after 2 trials
   
    13:00:00: Balanced after 3 trials
   
    13:05:00: Balanced after 2 trials
   
    13:10:00: Balanced after 2 trials
   
    13:15:00: Balanced after 2 trials
   
    13:20:00: Balanced after 2 trials
   
    13:25:00: Balanced after 2 trials
   
    13:30:00: Balanced after 2 trials
   
    13:35:00: Balanced after 2 trials
   
    13:40:00: Balanced after 2 trials
   
    13:45:00: Balanced after 2 trials
   
    13:50:00: Balanced after 2 trials
   
    13:55:00: Balanced after 2 trials
   
    14:00:00: Balanced after 2 trials
   
    14:05:00: Balanced after 2 trials
   
    14:10:00: Balanced after 2 trials
   
    14:15:00: Balanced after 2 trials
   
    14:20:00: Balanced after 2 trials
   
    14:25:00: Balanced after 2 trials
   
    14:30:00: Balanced after 2 trials
   
    14:35:00: Balanced after 2 trials
   
    14:40:00: Balanced after 2 trials
   
    14:45:00: Balanced after 2 trials
   
    14:50:00: Balanced after 2 trials
   
    14:55:00: Balanced after 2 trials
   
    15:00:00: Pump 10 changed by timer control
    15:00:00: Balanced after 5 trials
    15:00:00: Reservoir Lake is closed
    15:00:00: Tank 1 is emptying at 21.85 ft
    15:00:00: Tank 2 is emptying at 27.50 ft
    15:00:00: Pump 10 changed from open to closed
   
    15:05:00: Balanced after 2 trials
   
    15:10:00: Balanced after 2 trials
   
    15:15:00: Balanced after 2 trials
   
    15:20:00: Balanced after 2 trials
   
    15:25:00: Balanced after 2 trials
   
    15:30:00: Balanced after 2 trials
   
    15:35:00: Balanced after 2 trials
   
    15:40:00: Balanced after 2 trials
   
    15:45:00: Balanced after 2 trials
   
    15:50:00: Balanced after 2 trials
   
    15:55:00: Balanced after 2 trials
   
    16:00:00: Balanced after 3 trials
    16:00:00: Tank 2 is filling at 27.20 ft
   
    16:05:00: Balanced after 2 trials
   
    16:10:00: Balanced after 2 trials
   
    16:15:00: Balanced after 2 trials
   
    16:20:00: Balanced after 2 trials
   
    16:25:00: Balanced after 2 trials
   
    16:30:00: Balanced after 2 trials
   
    16:35:00: Balanced after 2 trials
   
    16:40:00: Balanced after 2 trials
   
    16:45:00: Balanced after 2 trials
   
    16:50:00: Balanced after 2 trials
   
    16:55:00: Balanced after 2 trials
   
    17:00:00: Balanced after 2 trials
   
    17:05:00: Balanced after 2 trials
   
    17:10:00: Balanced after 2 trials
   
    17:15:00: Balanced after 2 trials
    17:15:00: Tank 2 is closed at 27.42 ft
   
    17:20:00: Balanced after 2 trials
    17:20:00: Tank 2 is emptying at 27.42 ft
   
    17:25:00: Balanced after 1 trials
   
    17:30:00: Balanced after 1 trials
   
    17:35:00: Balanced after 1 trials
   
    17:40:00: Balanced after 1 trials
   
    17:45:00: Balanced after 1 trials
   
    17:50:00: Balanced after 1 trials
   
    17:55:00: Balanced after 1 trials
   
    18:00:00: Balanced after 3 trials
    18:00:00: Tank 2 is filling at 27.36 ft
   
    18:05:00: Balanced after 2 trials
   
    18:10:00: Balanced after 2 trials
   
    18:15:00: Balanced after 2 trials
   
    18:20:00: Balanced after 2 trials
   
    18:25:00: Balanced after 2 trials
   
    18:30:00: Balanced after 2 trials
   
    18:35:00: Balanced after 2 trials
   
    18:40:00: Balanced after 2 trials
   
    18:45:00: Balanced after 2 trials
   
    18:50:00: Balanced after 2 trials
   
    18:55:00: Balanced after 2 trials
   
    19:00:00: Balanced after 3 trials
    19:00:00: Tank 2 is emptying at 27.80 ft
   
    19:05:00: Balanced after 1 trials
   
    19:10:00: Balanced after 1 trials
   
    19:15:00: Balanced after 1 trials
   
    19:20:00: Balanced after 1 trials
   
    19:25:00: Balanced after 1 trials
   
    19:30:00: Balanced after 1 trials
   
    19:35:00: Balanced after 1 trials
   
    19:40:00: Balanced after 1 trials
   
    19:45:00: Balanced after 1 trials
   
    19:50:00: Balanced after 1 trials
   
    19:55:00: Balanced after 1 trials
   
    20:00:00: Balanced after 3 trials
   
    20:05:00: Balanced after 1 trials
   
    20:10:00: Balanced after 1 trials
   
    20:15:00: Balanced after 1 trials
   
    20:20:00: Balanced after 1 trials
   
    20:25:00: Balanced after 1 trials
   
    20:30:00: Balanced after 1 trials
   
    20:35:00: Balanced after 1 trials
   
    20:40:00: Balanced after 1 trials
   
    20:45:00: Balanced after 1 trials
   
    20:50:00: Balanced after 1 trials
   
    20:55:00: Balanced after 1 trials
   
    21:00:00: Balanced after 3 trials
   
    21:05:00: Balanced after 2 trials
   
    21:10:00: Balanced after 2 trials
   
    21:15:00: Balanced after 2 trials
   
    21:20:00: Balanced after 2 trials
   
    21:25:00: Balanced after 2 trials
   
    21:30:00: Balanced after 2 trials
   
    21:35:00: Balanced after 2 trials
   
    21:40:00: Balanced after 2 trials
   
    21:43:02: Pump 335 changed by Tank 1 control
    21:43:02: Pipe 330 changed by Tank 1 control
    21:43:02: Balanced after 5 trials
    21:43:02: Tank 1 is filling at 17.10 ft
    21:43:02: Tank 3 is filling at 29.26 ft
    21:43:02: Pipe 330 changed from open to closed
    21:43:02: Pump 335 changed from closed to open
   
    21:45:00: Balanced after 1 trials
   
    21:50:00: Balanced after 2 trials
   
    21:55:00: Balanced after 2 trials
   
    22:00:00: Balanced after 3 trials
    22:00:00: Tank 1 is emptying at 17.17 ft
   
    22:05:00: Balanced after 2 trials
   
    22:10:00: Balanced after 2 trials
   
    22:15:00: Balanced after 2 trials
   
    22:20:00: Balanced after 2 trials
   
    22:25:00: Balanced after 2 trials
   
    22:30:00: Balanced after 2 trials
   
    22:35:00: Balanced after 2 trials
   
    22:40:00: Balanced after 2 trials
   
    22:45:00: Balanced after 2 trials
   
    22:50:00: Balanced after 2 trials
   
    22:55:00: Balanced after 2 trials
   
    23:00:00: Balanced after 4 trials
   
    23:05:00: Balanced after 2 trials
   
    23:10:00: Balanced after 2 trials
   
    23:15:00: Balanced after 2 trials
   
    23:20:00: Balanced after 2 trials
   
    23:25:00: Balanced after 2 trials
   
    23:30:00: Balanced after 2 trials
   
    23:35:00: Balanced after 2 trials
   
    23:40:00: Balanced after 2 trials
   
    23:45:00: Balanced after 2 trials
   
    23:50:00: Balanced after 2 trials
   
    23:55:00: Balanced after 2 trials
   
    24:00:00: Balanced after 3 trials
    24:00:00: Tank 1 is filling at 15.57 ft
   
   
  Node Results at 0:00:00 hrs:
  --------------------------------------------------------
                     Demand      Head  Pressure  Chemical
  Node                  gpm        ft       psi      mg/L
  --------------------------------------------------------
  10                   0.00    145.01     -0.86      0.00
  15                 666.18    121.07     38.60      0.00
  20                   0.00    158.00     12.57      0.00
  35                1416.02    145.67     57.70      0.00
  40                   0.00    145.00      5.68      0.00
  50                   0.00    140.00     10.18      0.00
  60                   0.00    209.00     90.56      0.00
  601                  0.00    302.40    131.03      0.00
  61                   0.00    302.40    131.03      0.00
  101                271.63    145.01     44.63      0.00
  103                190.48    144.98     44.19      0.00
  105                193.58    146.36     51.07      0.00
  107                 78.14    146.35     53.88      0.00
  109                330.90    144.98     54.02      0.00
  111                202.97    145.76     58.82      0.00
  113                 28.61    145.84     62.33      0.00
  115                 74.50    146.53     57.42      0.00
  117                168.33    149.64     58.95      0.00
  119                251.87    157.35     67.31      0.00
  120                  0.00    154.86     67.10      0.00
  121                 59.53    160.85     70.56      0.00
  123                  0.00    165.31     66.86      0.00
  125                 65.21    160.29     64.69      0.00
  127                 25.25    158.68     44.49      0.00
  129                  0.00    158.67     46.65      0.00
  131                 61.13    158.64     66.14      0.00
  139                  8.42    152.21     52.52      0.00
  141                 14.09    147.63     62.23      0.00
  143                  8.87    135.28     60.57      0.00
  145                 39.51    149.02     64.14      0.00
  147                 12.23    150.08     57.01      0.00
  149                 38.71    150.52     58.29      0.00
  151                206.61    154.91     52.61      0.00
  153                 63.16    155.01     38.48      0.00
  157                 74.06    154.92     61.45      0.00
  159                 59.09    151.58     63.08      0.00
  161                 22.59    149.32     62.97      0.00
  163                 13.47    148.87     62.34      0.00
  164                  0.00    148.87     62.34      0.00
  166                  3.72    148.87     65.37      0.00
  167                 20.82    147.01     65.87      0.00
  169                  0.00    147.01     65.87      0.00
  171                 56.26    145.95     64.97      0.00
  173                  0.00    145.92     64.96      0.00
  177                 83.18    145.65     59.64      0.00
  179                  0.00    145.63     59.64      0.00
  181                  0.00    145.67     59.65      0.00
  183                  0.00    145.63     58.34      0.00
  184                  0.00    144.27     55.58      0.00
  185                 36.68    144.87     55.84      0.00
  187                  0.00    145.53     57.64      0.00
  189                154.33    145.89     61.48      0.00
  191                117.12    145.74     52.32      0.00
  193                101.97    145.85     55.40      0.00
  195                  0.00    145.92     56.51      0.00
  197                 24.37    145.74     53.18      0.00
  199                170.63    140.50     61.74      0.00
  201                 63.79    139.73     60.50      0.00
  203               4526.59    139.56     59.61      0.00
  204                  0.00    145.30     53.86      0.00
  205                 93.46    140.46     51.76      0.00
  206                  0.00    139.54     60.03      0.00
  207                 99.23    139.74     56.65      0.00
  208                  0.00    139.31     53.43      0.00
  209                  1.24    138.92     61.06      0.00
  211                 12.40    138.79     57.11      0.00
  213                 19.93    138.72     57.08      0.00
  215                131.83    138.50     56.98      0.00
  217                 34.63    138.48     57.40      0.00
  219                 59.09    138.47     58.27      0.00
  225                 32.60    138.47     56.53      0.00
  229                 91.78    138.63     55.52      0.00
  231                 23.57    138.63     57.90      0.00
  237                 22.32    138.77     54.06      0.00
  239                 63.79    138.77     54.50      0.00
  241                  0.00    138.77     54.50      0.00
  243                  6.21    138.77     54.06      0.00
  247                100.64    138.78     52.33      0.00
  249                  0.00    138.78     52.33      0.00
  251                 34.55    138.80     47.14      0.00
  253                 77.96    138.98     44.62      0.00
  255                 57.76    139.04     48.55      0.00
  257                  0.00    151.66     58.35      0.00
  259                  0.00    151.21     54.69      0.00
  261                  0.00    149.59     64.82      0.00
  263                  0.00    149.42     64.75      0.00
  265                  0.00    147.60     63.96      0.00
  267                  0.00    145.92     54.13      0.00
  269                  0.00    146.32     63.40      0.00
  271                  0.00    145.75     60.55      0.00
  273                  0.00    140.46     57.40      0.00
  275                  0.00    139.74     56.22      0.00
  River           -13163.25    220.00      0.00      0.00  Reservoir
  Lake                 0.00    167.00      0.00      0.00  Reservoir
  1                  429.82    145.00      5.68      0.00  Tank
  2                 -381.81    140.00     10.18      0.00  Tank
  3                 2147.65    158.00     12.57      0.00  Tank
   
   
  Link Results at 0:00:00 hrs:
  ----------------------------------------------
                       Flow  Velocity  Headloss
  Link                  gpm       fps   /1000ft
  ----------------------------------------------
  20               -2147.65      0.09      0.00
  40                -429.82      0.02      0.00
  50                 381.81      0.02      0.00
  60               13163.25      9.34      8.93
  101                  0.00      0.00      0.00
  103                158.68      0.25      0.02
  105               -430.31      1.22      0.53
  107                 21.47      0.06      0.00
  109                -31.79      0.05      0.00
  111               -362.70      1.03      0.39
  112                485.51      1.38      0.66
  113               -118.97      0.34      0.05
  114                117.15      0.75      0.34
  115                -56.66      0.36      0.09
  116                -30.43      0.09      0.00
  117                645.36      1.83      1.13
  119               -733.83      2.08      1.43
  120               1175.77      3.34      3.42
  121               1052.90      2.99      2.79
  122                371.75      2.37      2.92
  123               9877.09      4.48      1.75
  125              13163.25      5.97      2.97
  129               2854.88      2.02      0.60
  131               2564.22      1.82      0.50
  133              -2147.65      2.19      0.87
  135                391.32      0.28      0.02
  137                 61.13      0.10      0.00
  145                330.19      2.11      2.35
  147                321.76      2.05      2.24
  149               -675.05      4.31      8.82
  151               -666.18      4.25      8.61
  153                367.37      1.04      0.40
  155                406.88      1.15      0.48
  159               -419.11      1.19      0.51
  161               -457.82      2.92      4.30
  163               -162.29      0.46      0.09
  169                225.45      1.44      1.16
  171                502.13      1.42      0.71
  173               7947.32      3.61      1.17
  175               7873.26      3.57      1.15
  177               7814.17      3.55      1.13
  179               7534.23      3.42      1.06
  180                  3.72      0.01      0.00
  181                  3.72      0.01      0.00
  183               7301.33      3.31      1.00
  185                -20.82      0.13      0.01
  186                328.85      2.10      2.33
  187               6654.44      3.02      0.84
  189               4791.43      2.17      0.46
  191              -1806.75      1.28      0.26
  193              -1416.02      1.00      0.17
  195                525.62      1.49      0.77
  197                442.43      1.26      0.56
  199                 12.61      0.04      0.00
  201               -429.82      1.22      0.53
  202                550.78      3.52      6.05
  203                258.60      1.65      1.49
  204                550.78      1.56      0.84
  205                328.85      0.93      0.32
  207                245.99      0.70      0.19
  209                173.18      1.11      0.71
  211                626.07      1.78      1.06
  213                155.67      0.44      0.08
  215                 82.31      0.23      0.02
  217               -258.35      0.73      0.21
  219               -257.35      0.73      0.21
  221                257.35      1.64      1.48
  223                 14.44      0.04      0.00
  225                 38.81      0.11      0.01
  229               4791.43      3.40      1.36
  231               4504.20      3.19      1.21
  233               4526.59      3.21      1.42
  235                116.61      0.33      0.05
  237                460.78      1.31      0.60
  238                388.51      1.10      0.44
  239                 26.95      0.08      0.00
  240                388.51      1.10      0.44
  241                388.51      1.10      0.44
  243                387.26      0.62      0.11
  245                314.56      0.50      0.07
  247                258.16      0.41      0.05
  249                126.33      0.20      0.01
  251                 59.09      0.12      0.01
  257                 32.60      0.09      0.00
  261                 36.47      0.23      0.04
  263                 23.57      0.07      0.00
  269                 60.31      0.17      0.01
  271                 78.88      0.50      0.17
  273                -40.89      0.12      0.01
  275                -35.42      0.10      0.01
  277                  6.21      0.02      0.00
  281                -41.62      0.17      0.02
  283                -69.27      0.20      0.02
  285                 10.96      0.03      0.00
  287               -153.22      0.63      0.19
  289                381.81      1.56      1.04
  291                 77.96      0.32      0.05
  293                 92.86      0.59      0.22
  295                -58.31      0.17      0.01
  297                494.62      3.16      4.96
  299                237.65      1.52      1.28
  301                237.65      1.52      1.28
  303                256.97      1.64      1.47
  305                150.74      0.43      0.08
  307                407.71      1.16      0.48
  309                215.71      1.38      1.07
  311               -133.39      0.38      0.06
  313                491.18      1.39      0.68
  315              -1941.64      1.38      0.30
  317                113.13      0.72      0.32
  319                  3.47      0.01      0.00
  321               7517.04      3.41      1.05
  323                -86.18      0.24      0.03
  325                134.88      0.86      0.45
  329              13163.25      5.97      3.01
  330                  0.00      0.00      0.00
  333                 -0.00      0.00      0.00
  10                   0.00      0.00      0.00  Pump
  335              13163.25      0.00    -93.40  Pump
   
   
  Node Results at 0:05:00 hrs:
  --------------------------------------------------------
                     Demand      Head  Pressure  Chemical
  Node                  gpm        ft       psi      mg/L
  --------------------------------------------------------
  10                   0.00    145.04     -0.85      0.00
  15                 666.18    121.13     38.62      0.00
  20                   0.00    158.07     12.60      0.00
  35                1416.02    145.70     57.72      0.00
  40                   0.00    145.05      5.70      0.00
  50                   0.00    139.87     10.13      0.00
  60                   0.00    209.01     90.56      0.00
  601                  0.00    302.42    131.04      0.00
  61                   0.00    302.42    131.04      0.00
  101                271.63    145.04     44.65      0.00
  103                190.48    145.02     44.20      0.00
  105                193.58    146.39     51.08      0.00
  107                 78.14    146.39     53.90      0.00
  109                330.90    145.02     54.04      0.00
  111                202.97    145.79     58.84      0.00
  113                 28.61    145.88     62.34      0.00
  115                 74.50    146.57     57.44      0.00
  117                168.33    149.68     58.97      0.00
  119                251.87    157.40     67.34      0.00
  120                  0.00    154.90     67.12      0.00
  121                 59.53    160.90     70.58      0.00
  123                  0.00    165.36     66.88      0.00
  125                 65.21    160.34     64.71      0.00
  127                 25.25    158.74     44.52      0.00
  129                  0.00    158.73     46.68      0.00
  131                 61.13    158.71     66.17      0.00
  139                  8.42    152.27     52.55      0.00
  141                 14.09    147.68     62.26      0.00
  143                  8.87    135.33     60.59      0.00
  145                 39.51    149.08     64.16      0.00
  147                 12.23    150.13     57.04      0.00
  149                 38.71    150.58     58.31      0.00
  151                206.61    154.96     52.63      0.00
  153                 63.16    155.06     38.50      0.00
  157                 74.06    154.97     61.47      0.00
  159                 59.09    151.63     63.10      0.00
  161                 22.59    149.36     62.98      0.00
  163                 13.47    148.90     62.35      0.00
  164                  0.00    148.90     62.35      0.00
  166                  3.72    148.90     65.39      0.00
  167                 20.82    147.05     65.88      0.00
  169                  0.00    147.05     65.88      0.00
  171                 56.26    145.98     64.99      0.00
  173                  0.00    145.96     64.98      0.00
  177                 83.18    145.68     59.66      0.00
  179                  0.00    145.67     59.65      0.00
  181                  0.00    145.71     59.67      0.00
  183                  0.00    145.67     58.35      0.00
  184                  0.00    144.30     55.59      0.00
  185                 36.68    144.90     55.85      0.00
  187                  0.00    145.57     57.66      0.00
  189                154.33    145.92     61.49      0.00
  191                117.12    145.77     52.33      0.00
  193                101.97    145.88     55.41      0.00
  195                  0.00    145.96     56.53      0.00
  197                 24.37    145.78     53.20      0.00
  199                170.63    140.51     61.75      0.00
  201                 63.79    139.74     60.51      0.00
  203               4526.59    139.57     59.61      0.00
  204                  0.00    145.33     53.87      0.00
  205                 93.46    140.47     51.77      0.00
  206                  0.00    139.53     60.03      0.00
  207                 99.23    139.74     56.65      0.00
  208                  0.00    139.30     53.43      0.00
  209                  1.24    138.89     61.05      0.00
  211                 12.40    138.75     57.09      0.00
  213                 19.93    138.68     57.06      0.00
  215                131.83    138.46     56.96      0.00
  217                 34.63    138.44     57.38      0.00
  219                 59.09    138.42     58.25      0.00
  225                 32.60    138.43     56.52      0.00
  229                 91.78    138.58     55.50      0.00
  231                 23.57    138.58     57.88      0.00
  237                 22.32    138.71     54.04      0.00
  239                 63.79    138.71     54.47      0.00
  241                  0.00    138.71     54.47      0.00
  243                  6.21    138.71     54.04      0.00
  247                100.64    138.72     52.31      0.00
  249                  0.00    138.72     52.31      0.00
  251                 34.55    138.74     47.12      0.00
  253                 77.96    138.90     44.59      0.00
  255                 57.76    138.96     48.51      0.00
  257                  0.00    151.70     58.37      0.00
  259                  0.00    151.25     54.71      0.00
  261                  0.00    149.64     64.84      0.00
  263                  0.00    149.47     64.76      0.00
  265                  0.00    147.64     63.97      0.00
  267                  0.00    145.95     54.14      0.00
  269                  0.00    146.36     63.42      0.00
  271                  0.00    145.78     60.57      0.00
  273                  0.00    140.47     57.40      0.00
  275                  0.00    139.75     56.22      0.00
  River           -13161.52    220.00      0.00      0.00  Reservoir
  Lake                 0.00    167.00      0.00      0.00  Reservoir
  1                  424.54    145.05      5.70      0.00  Tank
  2                 -370.65    139.87     10.13      0.00  Tank
  3                 2140.05    158.07     12.60      0.00  Tank
   
   
  Link Results at 0:05:00 hrs:
  ----------------------------------------------
                       Flow  Velocity  Headloss
  Link                  gpm       fps   /1000ft
  ----------------------------------------------
  20               -2140.05      0.09      0.00
  40                -424.54      0.02      0.00
  50                 370.65      0.02      0.00
  60               13161.52      9.33      8.93
  101                  0.00      0.00      0.00
  103                158.86      0.25      0.02
  105               -430.49      1.22      0.53
  107                 21.59      0.06      0.00
  109                -31.61      0.05      0.00
  111               -362.51      1.03      0.39
  112                485.93      1.38      0.67
  113               -118.79      0.34      0.05
  114                117.29      0.75      0.35
  115                -56.55      0.36      0.09
  116                -30.11      0.09      0.00
  117                645.66      1.83      1.13
  119               -734.27      2.08      1.43
  120               1176.31      3.34      3.42
  121               1053.40      2.99      2.79
  122                371.94      2.37      2.93
  123               9882.54      4.49      1.75
  125              13161.52      5.97      2.97
  129               2847.51      2.02      0.60
  131               2556.76      1.81      0.49
  133              -2140.05      2.19      0.86
  135                391.45      0.28      0.02
  137                 61.13      0.10      0.00
  145                330.32      2.11      2.35
  147                321.90      2.05      2.24
  149               -675.05      4.31      8.82
  151               -666.18      4.25      8.61
  153                367.23      1.04      0.40
  155                406.74      1.15      0.48
  159               -418.97      1.19      0.51
  161               -457.68      2.92      4.30
  163               -162.38      0.46      0.09
  169                225.54      1.44      1.16
  171                501.90      1.42      0.71
  173               7952.46      3.61      1.17
  175               7878.40      3.58      1.15
  177               7819.31      3.55      1.13
  179               7539.29      3.42      1.06
  180                  3.72      0.01      0.00
  181                  3.72      0.01      0.00
  183               7306.38      3.32      1.00
  185                -20.82      0.13      0.01
  186                329.56      2.10      2.34
  187               6659.56      3.02      0.84
  189               4801.25      2.18      0.46
  191              -1802.06      1.28      0.26
  193              -1416.02      1.00      0.16
  195                521.01      1.48      0.76
  197                437.82      1.24      0.55
  199                 13.28      0.04      0.00
  201               -424.54      1.20      0.52
  202                552.12      3.52      6.08
  203                259.24      1.65      1.50
  204                552.12      1.57      0.84
  205                329.56      0.93      0.32
  207                245.96      0.70      0.19
  209                173.38      1.11      0.71
  211                626.01      1.78      1.06
  213                156.17      0.44      0.08
  215                 82.63      0.23      0.03
  217               -258.43      0.73      0.21
  219               -257.43      0.73      0.21
  221                257.43      1.64      1.48
  223                 14.86      0.04      0.00
  225                 39.23      0.11      0.01
  229               4801.25      3.41      1.36
  231               4512.80      3.20      1.21
  233               4526.59      3.21      1.42
  235                117.82      0.33      0.05
  237                463.04      1.31      0.61
  238                399.66      1.13      0.46
  239                 35.85      0.10      0.01
  240                399.66      1.13      0.46
  241                399.66      1.13      0.46
  243                398.41      0.64      0.11
  245                315.75      0.50      0.07
  247                258.16      0.41      0.05
  249                126.33      0.20      0.01
  251                 59.09      0.12      0.01
  257                 32.60      0.09      0.00
  261                 37.66      0.24      0.04
  263                 23.57      0.07      0.00
  269                 70.26      0.20      0.02
  271                 77.68      0.50      0.16
  273                -29.74      0.08      0.00
  275                -31.21      0.09      0.00
  277                  6.21      0.02      0.00
  281                -37.42      0.15      0.01
  283                -62.32      0.18      0.01
  285                  8.11      0.02      0.00
  287               -146.17      0.60      0.17
  289                370.65      1.51      0.98
  291                 77.96      0.32      0.05
  293                 88.76      0.57      0.21
  295                -54.21      0.15      0.01
  297                494.85      3.16      4.96
  299                237.76      1.52      1.28
  301                237.76      1.52      1.28
  303                257.09      1.64      1.48
  305                150.81      0.43      0.08
  307                407.89      1.16      0.48
  309                215.72      1.38      1.07
  311               -133.08      0.38      0.06
  313                491.03      1.39      0.68
  315              -1937.03      1.37      0.29
  317                113.43      0.72      0.32
  319                  4.39      0.01      0.00
  321               7522.10      3.41      1.05
  323                -77.58      0.22      0.02
  325                134.97      0.86      0.45
  329              13161.52      5.97      3.01
  330                  0.00      0.00      0.00
  333                 -0.00      0.00      0.00
  10                   0.00      0.00      0.00  Pump
  335              13161.53      0.00    -93.41  Pump
   
   
  Node Results at 0:10:00 hrs:
  --------------------------------------------------------
                     Demand      Head  Pressure  Chemical
  Node                  gpm        ft       psi      mg/L
  --------------------------------------------------------
  10                   0.00    145.08     -0.83      0.00
  15                 666.18    121.18     38.64      0.00
  20                   0.00    158.14     12.62      0.00
  35                1416.02    145.74     57.73      0.00
  40                   0.00    145.10      5.72      0.00
  50                   0.00    139.74     10.07      0.00
  60                   0.00    209.01     90.56      0.00
  601                  0.00    302.43    131.04      0.00
  61                   0.00    302.43    131.04      0.00
  101                271.63    145.08     44.67      0.00
  103                190.48    145.05     44.22      0.00
  105                193.58    146.43     51.10      0.00
  107                 78.14    146.43     53.92      0.00
  109                330.90    145.06     54.06      0.00
  111                202.97    145.83     58.86      0.00
  113                 28.61    145.91     62.36      0.00
  115                 74.50    146.60     57.46      0.00
  117                168.33    149.73     58.98      0.00
  119                251.87    157.45     67.36      0.00
  120                  0.00    154.95     67.14      0.00
  121                 59.53    160.95     70.61      0.00
  123                  0.00    165.41     66.91      0.00
  125                 65.21    160.40     64.73      0.00
  127                 25.25    158.81     44.55      0.00
  129                  0.00    158.79     46.71      0.00
  131                 61.13    158.77     66.20      0.00
  139                  8.42    152.33     52.57      0.00
  141                 14.09    147.74     62.28      0.00
  143                  8.87    135.39     60.61      0.00
  145                 39.51    149.13     64.18      0.00
  147                 12.23    150.18     57.06      0.00
  149                 38.71    150.63     58.33      0.00
  151                206.61    155.01     52.65      0.00
  153                 63.16    155.11     38.52      0.00
  157                 74.06    155.02     61.49      0.00
  159                 59.09    151.67     63.12      0.00
  161                 22.59    149.40     63.00      0.00
  163                 13.47    148.94     62.37      0.00
  164                  0.00    148.94     62.37      0.00
  166                  3.72    148.94     65.40      0.00
  167                 20.82    147.08     65.90      0.00
  169                  0.00    147.08     65.90      0.00
  171                 56.26    146.01     65.00      0.00
  173                  0.00    145.99     64.99      0.00
  177                 83.18    145.72     59.67      0.00
  179                  0.00    145.70     59.67      0.00
  181                  0.00    145.74     59.68      0.00
  183                  0.00    145.70     58.37      0.00
  184                  0.00    144.33     55.60      0.00
  185                 36.68    144.94     55.87      0.00
  187                  0.00    145.60     57.67      0.00
  189                154.33    145.96     61.51      0.00
  191                117.12    145.81     52.35      0.00
  193                101.97    145.92     55.43      0.00
  195                  0.00    145.99     56.54      0.00
  197                 24.37    145.81     53.21      0.00
  199                170.63    140.52     61.76      0.00
  201                 63.79    139.76     60.51      0.00
  203               4526.59    139.59     59.62      0.00
  204                  0.00    145.37     53.89      0.00
  205                 93.46    140.49     51.77      0.00
  206                  0.00    139.53     60.03      0.00
  207                 99.23    139.75     56.65      0.00
  208                  0.00    139.28     53.42      0.00
  209                  1.24    138.85     61.03      0.00
  211                 12.40    138.71     57.07      0.00
  213                 19.93    138.63     57.04      0.00
  215                131.83    138.41     56.94      0.00
  217                 34.63    138.39     57.37      0.00
  219                 59.09    138.38     58.23      0.00
  225                 32.60    138.39     56.50      0.00
  229                 91.78    138.53     55.48      0.00
  231                 23.57    138.53     57.86      0.00
  237                 22.32    138.66     54.01      0.00
  239                 63.79    138.66     54.45      0.00
  241                  0.00    138.66     54.45      0.00
  243                  6.21    138.66     54.01      0.00
  247                100.64    138.66     52.28      0.00
  249                  0.00    138.66     52.28      0.00
  251                 34.55    138.68     47.09      0.00
  253                 77.96    138.83     44.55      0.00
  255                 57.76    138.89     48.48      0.00
  257                  0.00    151.75     58.39      0.00
  259                  0.00    151.30     54.72      0.00
  261                  0.00    149.68     64.86      0.00
  263                  0.00    149.51     64.78      0.00
  265                  0.00    147.68     63.99      0.00
  267                  0.00    145.99     54.16      0.00
  269                  0.00    146.40     63.43      0.00
  271                  0.00    145.82     60.58      0.00
  273                  0.00    140.49     57.41      0.00
  275                  0.00    139.76     56.23      0.00
  River           -13159.80    220.00      0.00      0.00  Reservoir
  Lake                 0.00    167.00      0.00      0.00  Reservoir
  1                  419.47    145.10      5.72      0.00  Tank
  2                 -359.76    139.74     10.07      0.00  Tank
  3                 2132.50    158.14     12.62      0.00  Tank
   
   
  Link Results at 0:10:00 hrs:
  ----------------------------------------------
                       Flow  Velocity  Headloss
  Link                  gpm       fps   /1000ft
  ----------------------------------------------
  20               -2132.50      0.09      0.00
  40                -419.47      0.02      0.00
  50                 359.76      0.01      0.00
  60               13159.80      9.33      8.93
  101                  0.00      0.00      0.00
  103                159.05      0.25      0.02
  105               -430.67      1.22      0.53
  107                 21.70      0.06      0.00
  109                -31.43      0.05      0.00
  111               -362.33      1.03      0.39
  112                486.34      1.38      0.67
  113               -118.61      0.34      0.05
  114                117.42      0.75      0.35
  115                -56.44      0.36      0.09
  116                -29.80      0.08      0.00
  117                645.95      1.83      1.13
  119               -734.70      2.08      1.43
  120               1176.85      3.34      3.43
  121               1053.89      2.99      2.79
  122                372.13      2.38      2.93
  123               9887.95      4.49      1.75
  125              13159.80      5.97      2.97
  129               2840.19      2.01      0.60
  131               2549.35      1.81      0.49
  133              -2132.50      2.18      0.86
  135                391.59      0.28      0.02
  137                 61.13      0.10      0.00
  145                330.46      2.11      2.35
  147                322.03      2.06      2.24
  149               -675.05      4.31      8.82
  151               -666.18      4.25      8.61
  153                367.10      1.04      0.40
  155                406.61      1.15      0.48
  159               -418.83      1.19      0.51
  161               -457.54      2.92      4.29
  163               -162.47      0.46      0.09
  169                225.64      1.44      1.16
  171                501.68      1.42      0.71
  173               7957.56      3.61      1.17
  175               7883.50      3.58      1.15
  177               7824.41      3.55      1.13
  179               7544.31      3.42      1.06
  180                  3.72      0.01      0.00
  181                  3.72      0.01      0.00
  183               7311.39      3.32      1.00
  185                -20.82      0.13      0.01
  186                330.25      2.11      2.35
  187               6664.62      3.02      0.84
  189               4810.83      2.18      0.46
  191              -1797.53      1.27      0.26
  193              -1416.02      1.00      0.16
  195                516.57      1.47      0.75
  197                433.39      1.23      0.54
  199                 13.92      0.04      0.00
  201               -419.47      1.19      0.51
  202                553.43      3.53      6.11
  203                259.86      1.66      1.51
  204                553.43      1.57      0.85
  205                330.25      0.94      0.33
  207                245.94      0.70      0.19
  209                173.58      1.11      0.71
  211                625.95      1.78      1.06
  213                156.67      0.44      0.08
  215                 82.96      0.24      0.03
  217               -258.51      0.73      0.21
  219               -257.51      0.73      0.21
  221                257.51      1.64      1.48
  223                 15.28      0.04      0.00
  225                 39.64      0.11      0.01
  229               4810.83      3.41      1.37
  231               4521.09      3.21      1.22
  233               4526.59      3.21      1.42
  235                119.10      0.34      0.05
  237                465.37      1.32      0.61
  238                410.55      1.16      0.49
  239                 44.41      0.13      0.01
  240                410.55      1.16      0.49
  241                410.55      1.16      0.49
  243                409.31      0.65      0.12
  245                317.03      0.51      0.07
  247                258.16      0.41      0.05
  249                126.33      0.20      0.01
  251                 59.09      0.12      0.01
  257                 32.60      0.09      0.00
  261                 38.94      0.25      0.04
  263                 23.57      0.07      0.00
  269                 79.87      0.23      0.02
  271                 76.40      0.49      0.16
  273                -18.85      0.05      0.00
  275                -27.14      0.08      0.00
  277                  6.21      0.02      0.00
  281                -33.34      0.14      0.01
  283                -55.51      0.16      0.01
  285                  5.30      0.02      0.00
  287               -139.29      0.57      0.16
  289                359.76      1.47      0.93
  291                 77.96      0.32      0.05
  293                 84.76      0.54      0.19
  295                -50.21      0.14      0.01
  297                495.08      3.16      4.97
  299                237.87      1.52      1.28
  301                237.87      1.52      1.28
  303                257.21      1.64      1.48
  305                150.87      0.43      0.08
  307                408.08      1.16      0.48
  309                215.73      1.38      1.07
  311               -132.77      0.38      0.06
  313                490.89      1.39      0.68
  315              -1932.59      1.37      0.29
  317                113.70      0.73      0.33
  319                  5.41      0.02      0.00
  321               7527.12      3.42      1.06
  323                -69.29      0.20      0.02
  325                135.06      0.86      0.45
  329              13159.80      5.97      3.01
  330                  0.00      0.00      0.00
  333                 -0.00      0.00      0.00
  10                   0.00      0.00      0.00  Pump
  335              13159.80      0.00    -93.43  Pump
   
   
  Node Results at 0:15:00 hrs:
  --------------------------------------------------------
                     Demand      Head  Pressure  Chemical
  Node                  gpm        ft       psi      mg/L
  --------------------------------------------------------
  10                   0.00    145.12     -0.81      0.00
  15                 666.18    121.24     38.67      0.00
  20                   0.00    158.20     12.65      0.00
  35                1416.02    145.77     57.75      0.00
  40                   0.00    145.15      5.74      0.00
  50                   0.00    139.62     10.02      0.00
  60                   0.00    209.01     90.56      0.00
  601                  0.00    302.45    131.05      0.00
  61                   0.00    302.45    131.05      0.00
  101                271.63    145.12     44.68      0.00
  103                190.48    145.09     44.24      0.00
  105                193.58    146.47     51.12      0.00
  107                 78.14    146.47     53.93      0.00
  109                330.90    145.10     54.07      0.00
  111                202.97    145.87     58.87      0.00
  113                 28.61    145.95     62.37      0.00
  115                 74.50    146.64     57.47      0.00
  117                168.33    149.77     59.00      0.00
  119                251.87    157.50     67.38      0.00
  120                  0.00    155.00     67.16      0.00
  121                 59.53    161.00     70.63      0.00
  123                  0.00    165.46     66.93      0.00
  125                 65.21    160.45     64.76      0.00
  127                 25.25    158.87     44.57      0.00
  129                  0.00    158.86     46.73      0.00
  131                 61.13    158.83     66.22      0.00
  139                  8.42    152.39     52.60      0.00
  141                 14.09    147.79     62.31      0.00
  143                  8.87    135.44     60.64      0.00
  145                 39.51    149.18     64.21      0.00
  147                 12.23    150.24     57.08      0.00
  149                 38.71    150.68     58.36      0.00
  151                206.61    155.06     52.67      0.00
  153                 63.16    155.16     38.55      0.00
  157                 74.06    155.06     61.51      0.00
  159                 59.09    151.71     63.14      0.00
  161                 22.59    149.44     63.02      0.00
  163                 13.47    148.98     62.39      0.00
  164                  0.00    148.98     62.39      0.00
  166                  3.72    148.98     65.42      0.00
  167                 20.82    147.12     65.91      0.00
  169                  0.00    147.12     65.91      0.00
  171                 56.26    146.05     65.02      0.00
  173                  0.00    146.03     65.01      0.00
  177                 83.18    145.76     59.69      0.00
  179                  0.00    145.74     59.68      0.00
  181                  0.00    145.78     59.70      0.00
  183                  0.00    145.74     58.38      0.00
  184                  0.00    144.36     55.62      0.00
  185                 36.68    144.97     55.88      0.00
  187                  0.00    145.64     57.69      0.00
  189                154.33    146.00     61.53      0.00
  191                117.12    145.85     52.36      0.00
  193                101.97    145.96     55.44      0.00
  195                  0.00    146.03     56.56      0.00
  197                 24.37    145.85     53.23      0.00
  199                170.63    140.54     61.76      0.00
  201                 63.79    139.77     60.52      0.00
  203               4526.59    139.60     59.62      0.00
  204                  0.00    145.40     53.90      0.00
  205                 93.46    140.50     51.78      0.00
  206                  0.00    139.53     60.02      0.00
  207                 99.23    139.76     56.66      0.00
  208                  0.00    139.27     53.41      0.00
  209                  1.24    138.81     61.01      0.00
  211                 12.40    138.66     57.05      0.00
  213                 19.93    138.59     57.02      0.00
  215                131.83    138.37     56.92      0.00
  217                 34.63    138.35     57.35      0.00
  219                 59.09    138.34     58.21      0.00
  225                 32.60    138.34     56.48      0.00
  229                 91.78    138.48     55.46      0.00
  231                 23.57    138.48     57.84      0.00
  237                 22.32    138.60     53.99      0.00
  239                 63.79    138.60     54.42      0.00
  241                  0.00    138.60     54.42      0.00
  243                  6.21    138.60     53.99      0.00
  247                100.64    138.61     52.26      0.00
  249                  0.00    138.61     52.26      0.00
  251                 34.55    138.62     47.06      0.00
  253                 77.96    138.75     44.52      0.00
  255                 57.76    138.81     48.45      0.00
  257                  0.00    151.79     58.40      0.00
  259                  0.00    151.34     54.74      0.00
  261                  0.00    149.72     64.87      0.00
  263                  0.00    149.55     64.80      0.00
  265                  0.00    147.71     64.00      0.00
  267                  0.00    146.03     54.17      0.00
  269                  0.00    146.43     63.45      0.00
  271                  0.00    145.85     60.60      0.00
  273                  0.00    140.50     57.41      0.00
  275                  0.00    139.77     56.23      0.00
  River           -13158.08    220.00      0.00      0.00  Reservoir
  Lake                 0.00    167.00      0.00      0.00  Reservoir
  1                  414.59    145.15      5.74      0.00  Tank
  2                 -349.11    139.62     10.02      0.00  Tank
  3                 2125.02    158.20     12.65      0.00  Tank
   
   
  Link Results at 0:15:00 hrs:
  ----------------------------------------------
                       Flow  Velocity  Headloss
  Link                  gpm       fps   /1000ft
  ----------------------------------------------
  20               -2125.02      0.09      0.00
  40                -414.59      0.02      0.00
  50                 349.11      0.01      0.00
  60               13158.08      9.33      8.93
  101                  0.00      0.00      0.00
  103                159.23      0.25      0.02
  105               -430.85      1.22      0.53
  107                 21.81      0.06      0.00
  109                -31.25      0.05      0.00
  111               -362.15      1.03      0.39
  112                486.75      1.38      0.67
  113               -118.43      0.34      0.05
  114                117.55      0.75      0.35
  115                -56.33      0.36      0.09
  116                -29.49      0.08      0.00
  117                646.24      1.83      1.13
  119               -735.13      2.09      1.43
  120               1177.38      3.34      3.43
  121               1054.38      2.99      2.80
  122                372.32      2.38      2.93
  123               9893.30      4.49      1.75
  125              13158.08      5.97      2.97
  129               2832.93      2.01      0.60
  131               2542.00      1.80      0.49
  133              -2125.02      2.17      0.85
  135                391.72      0.28      0.02
  137                 61.13      0.10      0.00
  145                330.59      2.11      2.35
  147                322.17      2.06      2.24
  149               -675.05      4.31      8.82
  151               -666.18      4.25      8.61
  153                366.96      1.04      0.40
  155                406.47      1.15      0.48
  159               -418.70      1.19      0.51
  161               -457.41      2.92      4.29
  163               -162.57      0.46      0.09
  169                225.73      1.44      1.16
  171                501.45      1.42      0.71
  173               7962.60      3.61      1.17
  175               7888.54      3.58      1.15
  177               7829.46      3.55      1.14
  179               7549.27      3.43      1.06
  180                  3.72      0.01      0.00
  181                  3.72      0.01      0.00
  183               7316.34      3.32      1.00
  185                -20.82      0.13      0.01
  186                330.93      2.11      2.36
  187               6669.61      3.03      0.84
  189               4820.19      2.19      0.46
  191              -1793.16      1.27      0.26
  193              -1416.02      1.00      0.17
  195                512.29      1.45      0.73
  197                429.11      1.22      0.53
  199                 14.52      0.04      0.00
  201               -414.59      1.18      0.50
  202                554.71      3.54      6.13
  203                260.46      1.66      1.51
  204                554.71      1.57      0.85
  205                330.93      0.94      0.33
  207                245.94      0.70      0.19
  209                173.78      1.11      0.71
  211                625.91      1.78      1.06
  213                157.15      0.45      0.08
  215                 83.28      0.24      0.03
  217               -258.58      0.73      0.21
  219               -257.59      0.73      0.21
  221                257.59      1.64      1.48
  223                 15.69      0.04      0.00
  225                 40.06      0.11      0.01
  229               4820.19      3.42      1.37
  231               4529.11      3.21      1.22
  233               4526.59      3.21      1.42
  235                120.46      0.34      0.05
  237                467.76      1.33      0.62
  238                421.20      1.19      0.51
  239                 52.67      0.15      0.01
  240                421.20      1.19      0.51
  241                421.20      1.19      0.51
  243                419.96      0.67      0.13
  245                318.39      0.51      0.07
  247                258.16      0.41      0.05
  249                126.33      0.20      0.01
  251                 59.09      0.12      0.01
  257                 32.60      0.09      0.00
  261                 40.30      0.26      0.05
  263                 23.57      0.07      0.00
  269                 89.17      0.25      0.03
  271                 75.05      0.48      0.15
  273                 -8.20      0.02      0.00
  275                -23.15      0.07      0.00
  277                  6.21      0.02      0.00
  281                -29.36      0.12      0.01
  283                -48.84      0.14      0.01
  285                  2.56      0.01      0.00
  287               -132.56      0.54      0.15
  289                349.11      1.43      0.88
  291                 77.96      0.32      0.05
  293                 80.83      0.52      0.17
  295                -46.28      0.13      0.01
  297                495.31      3.16      4.97
  299                237.98      1.52      1.28
  301                237.98      1.52      1.28
  303                257.33      1.64      1.48
  305                150.93      0.43      0.08
  307                408.26      1.16      0.48
  309                215.74      1.38      1.07
  311               -132.46      0.38      0.06
  313                490.76      1.39      0.68
  315              -1928.31      1.37      0.29
  317                113.94      0.73      0.33
  319                  6.52      0.02      0.00
  321               7532.08      3.42      1.06
  323                -61.27      0.17      0.01
  325                135.15      0.86      0.45
  329              13158.08      5.97      3.01
  330                  0.00      0.00      0.00
  333                 -0.00      0.00      0.00
  10                   0.00      0.00      0.00  Pump
  335              13158.09      0.00    -93.44  Pump
   
   
  Node Results at 0:20:00 hrs:
  --------------------------------------------------------
                     Demand      Head  Pressure  Chemical
  Node                  gpm        ft       psi      mg/L
  --------------------------------------------------------
  10                   0.00    145.16     -0.80      0.00
  15                 666.18    121.29     38.69      0.00
  20                   0.00    158.27     12.68      0.00
  35                1416.02    145.81     57.76      0.00
  40                   0.00    145.20      5.76      0.00
  50                   0.00    139.50      9.97      0.00
  60                   0.00    209.01     90.57      0.00
  601                  0.00    302.47    131.06      0.00
  61                   0.00    302.47    131.06      0.00
  101                271.63    145.16     44.70      0.00
  103                190.48    145.13     44.25      0.00
  105                193.58    146.51     51.13      0.00
  107                 78.14    146.51     53.95      0.00
  109                330.90    145.13     54.09      0.00
  111                202.97    145.91     58.89      0.00
  113                 28.61    145.99     62.39      0.00
  115                 74.50    146.68     57.49      0.00
  117                168.33    149.81     59.02      0.00
  119                251.87    157.55     67.40      0.00
  120                  0.00    155.04     67.18      0.00
  121                 59.53    161.06     70.65      0.00
  123                  0.00    165.51     66.95      0.00
  125                 65.21    160.50     64.78      0.00
  127                 25.25    158.93     44.60      0.00
  129                  0.00    158.92     46.76      0.00
  131                 61.13    158.90     66.25      0.00
  139                  8.42    152.45     52.62      0.00
  141                 14.09    147.85     62.33      0.00
  143                  8.87    135.50     60.66      0.00
  145                 39.51    149.24     64.23      0.00
  147                 12.23    150.29     57.10      0.00
  149                 38.71    150.73     58.38      0.00
  151                206.61    155.11     52.69      0.00
  153                 63.16    155.21     38.57      0.00
  157                 74.06    155.11     61.53      0.00
  159                 59.09    151.75     63.15      0.00
  161                 22.59    149.48     63.03      0.00
  163                 13.47    149.02     62.40      0.00
  164                  0.00    149.02     62.40      0.00
  166                  3.72    149.02     65.44      0.00
  167                 20.82    147.16     65.93      0.00
  169                  0.00    147.16     65.93      0.00
  171                 56.26    146.08     65.03      0.00
  173                  0.00    146.06     65.02      0.00
  177                 83.18    145.79     59.71      0.00
  179                  0.00    145.78     59.70      0.00
  181                  0.00    145.81     59.71      0.00
  183                  0.00    145.78     58.40      0.00
  184                  0.00    144.39     55.63      0.00
  185                 36.68    145.00     55.90      0.00
  187                  0.00    145.67     57.70      0.00
  189                154.33    146.03     61.54      0.00
  191                117.12    145.89     52.38      0.00
  193                101.97    145.99     55.46      0.00
  195                  0.00    146.07     56.57      0.00
  197                 24.37    145.89     53.25      0.00
  199                170.63    140.55     61.77      0.00
  201                 63.79    139.78     60.52      0.00
  203               4526.59    139.61     59.63      0.00
  204                  0.00    145.44     53.92      0.00
  205                 93.46    140.52     51.79      0.00
  206                  0.00    139.52     60.02      0.00
  207                 99.23    139.76     56.66      0.00
  208                  0.00    139.25     53.40      0.00
  209                  1.24    138.78     61.00      0.00
  211                 12.40    138.62     57.03      0.00
  213                 19.93    138.54     57.00      0.00
  215                131.83    138.33     56.90      0.00
  217                 34.63    138.30     57.33      0.00
  219                 59.09    138.29     58.19      0.00
  225                 32.60    138.30     56.46      0.00
  229                 91.78    138.43     55.43      0.00
  231                 23.57    138.43     57.81      0.00
  237                 22.32    138.55     53.97      0.00
  239                 63.79    138.55     54.40      0.00
  241                  0.00    138.55     54.40      0.00
  243                  6.21    138.55     53.97      0.00
  247                100.64    138.55     52.23      0.00
  249                  0.00    138.55     52.23      0.00
  251                 34.55    138.56     47.04      0.00
  253                 77.96    138.68     44.49      0.00
  255                 57.76    138.74     48.41      0.00
  257                  0.00    151.83     58.42      0.00
  259                  0.00    151.38     54.76      0.00
  261                  0.00    149.76     64.89      0.00
  263                  0.00    149.59     64.82      0.00
  265                  0.00    147.75     64.02      0.00
  267                  0.00    146.06     54.19      0.00
  269                  0.00    146.47     63.47      0.00
  271                  0.00    145.89     60.61      0.00
  273                  0.00    140.52     57.42      0.00
  275                  0.00    139.78     56.24      0.00
  River           -13156.37    220.00      0.00      0.00  Reservoir
  Lake                 0.00    167.00      0.00      0.00  Reservoir
  1                  409.88    145.20      5.76      0.00  Tank
  2                 -338.69    139.50      9.97      0.00  Tank
  3                 2117.59    158.27     12.68      0.00  Tank
   
   
  Link Results at 0:20:00 hrs:
  ----------------------------------------------
                       Flow  Velocity  Headloss
  Link                  gpm       fps   /1000ft
  ----------------------------------------------
  20               -2117.59      0.09      0.00
  40                -409.88      0.02      0.00
  50                 338.69      0.01      0.00
  60               13156.37      9.33      8.93
  101                  0.00      0.00      0.00
  103                159.40      0.25      0.02
  105               -431.03      1.22      0.53
  107                 21.92      0.06      0.00
  109                -31.07      0.05      0.00
  111               -361.97      1.03      0.39
  112                487.15      1.38      0.67
  113               -118.25      0.34      0.05
  114                117.68      0.75      0.35
  115                -56.22      0.36      0.09
  116                -29.19      0.08      0.00
  117                646.53      1.83      1.13
  119               -735.56      2.09      1.44
  120               1177.91      3.34      3.43
  121               1054.87      2.99      2.80
  122                372.50      2.38      2.93
  123               9898.60      4.49      1.75
  125              13156.37      5.97      2.97
  129               2825.73      2.00      0.59
  131               2534.70      1.80      0.48
  133              -2117.59      2.16      0.84
  135                391.86      0.28      0.02
  137                 61.13      0.10      0.00
  145                330.72      2.11      2.35
  147                322.30      2.06      2.24
  149               -675.05      4.31      8.82
  151               -666.18      4.25      8.61
  153                366.83      1.04      0.40
  155                406.34      1.15      0.48
  159               -418.57      1.19      0.51
  161               -457.28      2.92      4.29
  163               -162.66      0.46      0.09
  169                225.82      1.44      1.16
  171                501.23      1.42      0.71
  173               7967.60      3.62      1.17
  175               7893.54      3.58      1.15
  177               7834.45      3.56      1.14
  179               7554.19      3.43      1.06
  180                  3.72      0.01      0.00
  181                  3.72      0.01      0.00
  183               7321.24      3.32      1.00
  185                -20.82      0.13      0.01
  186                331.60      2.12      2.37
  187               6674.56      3.03      0.85
  189               4829.36      2.19      0.46
  191              -1788.94      1.27      0.25
  193              -1416.02      1.00      0.17
  195                508.16      1.44      0.72
  197                424.98      1.21      0.52
  199                 15.10      0.04      0.00
  201               -409.88      1.16      0.49
  202                555.97      3.55      6.16
  203                261.04      1.67      1.52
  204                555.97      1.58      0.85
  205                331.60      0.94      0.33
  207                245.95      0.70      0.19
  209                173.97      1.11      0.72
  211                625.87      1.78      1.06
  213                157.64      0.45      0.08
  215                 83.61      0.24      0.03
  217               -258.66      0.73      0.21
  219               -257.67      0.73      0.21
  221                257.67      1.64      1.48
  223                 16.09      0.05      0.00
  225                 40.46      0.11      0.01
  229               4829.36      3.42      1.38
  231               4536.87      3.22      1.23
  233               4526.59      3.21      1.42
  235                121.86      0.35      0.05
  237                470.20      1.33      0.63
  238                431.62      1.22      0.53
  239                 60.65      0.17      0.01
  240                431.62      1.22      0.53
  241                431.62      1.22      0.53
  243                430.38      0.69      0.13
  245                319.81      0.51      0.08
  247                258.16      0.41      0.05
  249                126.33      0.20      0.01
  251                 59.09      0.12      0.01
  257                 32.60      0.09      0.00
  261                 41.72      0.27      0.05
  263                 23.57      0.07      0.00
  269                 98.17      0.28      0.03
  271                 73.63      0.47      0.15
  273                  2.22      0.01      0.00
  275                -19.25      0.05      0.00
  277                  6.21      0.02      0.00
  281                -25.45      0.10      0.01
  283                -42.32      0.12      0.01
  285                 -0.12      0.00      0.00
  287               -125.97      0.51      0.13
  289                338.69      1.38      0.83
  291                 77.96      0.32      0.05
  293                 76.99      0.49      0.16
  295                -42.44      0.12      0.01
  297                495.54      3.16      4.98
  299                238.09      1.52      1.28
  301                238.09      1.52      1.28
  303                257.45      1.64      1.48
  305                150.99      0.43      0.08
  307                408.43      1.16      0.48
  309                215.76      1.38      1.07
  311               -132.15      0.37      0.06
  313                490.63      1.39      0.68
  315              -1924.18      1.36      0.29
  317                114.16      0.73      0.33
  319                  7.70      0.02      0.00
  321               7537.00      3.42      1.06
  323                -53.51      0.15      0.01
  325                135.24      0.86      0.45
  329              13156.37      5.97      3.01
  330                  0.00      0.00      0.00
  333                 -0.00      0.00      0.00
  10                   0.00      0.00      0.00  Pump
  335              13156.37      0.00    -93.46  Pump
   
   
  Node Results at 0:25:00 hrs:
  --------------------------------------------------------
                     Demand      Head  Pressure  Chemical
  Node                  gpm        ft       psi      mg/L
  --------------------------------------------------------
  10                   0.00    145.20     -0.78      0.00
  15                 666.18    121.35     38.71      0.00
  20                   0.00    158.34     12.71      0.00
  35                1416.02    145.85     57.78      0.00
  40                   0.00    145.25      5.78      0.00
  50                   0.00    139.39      9.92      0.00
  60                   0.00    209.02     90.57      0.00
  601                  0.00    302.49    131.07      0.00
  61                   0.00    302.49    131.07      0.00
  101                271.63    145.20     44.71      0.00
  103                190.48    145.17     44.27      0.00
  105                193.58    146.55     51.15      0.00
  107                 78.14    146.55     53.97      0.00
  109                330.90    145.17     54.11      0.00
  111                202.97    145.94     58.90      0.00
  113                 28.61    146.02     62.41      0.00
  115                 74.50    146.72     57.51      0.00
  117                168.33    149.85     59.04      0.00
  119                251.87    157.60     67.42      0.00
  120                  0.00    155.09     67.20      0.00
  121                 59.53    161.11     70.67      0.00
  123                  0.00    165.56     66.97      0.00
  125                 65.21    160.56     64.80      0.00
  127                 25.25    159.00     44.63      0.00
  129                  0.00    158.98     46.79      0.00
  131                 61.13    158.96     66.28      0.00
  139                  8.42    152.51     52.65      0.00
  141                 14.09    147.90     62.35      0.00
  143                  8.87    135.55     60.68      0.00
  145                 39.51    149.29     64.25      0.00
  147                 12.23    150.34     57.13      0.00
  149                 38.71    150.79     58.40      0.00
  151                206.61    155.16     52.71      0.00
  153                 63.16    155.26     38.59      0.00
  157                 74.06    155.15     61.55      0.00
  159                 59.09    151.79     63.17      0.00
  161                 22.59    149.52     63.05      0.00
  163                 13.47    149.06     62.42      0.00
  164                  0.00    149.06     62.42      0.00
  166                  3.72    149.06     65.45      0.00
  167                 20.82    147.19     65.94      0.00
  169                  0.00    147.19     65.95      0.00
  171                 56.26    146.12     65.05      0.00
  173                  0.00    146.09     65.04      0.00
  177                 83.18    145.83     59.72      0.00
  179                  0.00    145.81     59.71      0.00
  181                  0.00    145.85     59.73      0.00
  183                  0.00    145.81     58.41      0.00
  184                  0.00    144.42     55.64      0.00
  185                 36.68    145.04     55.91      0.00
  187                  0.00    145.71     57.72      0.00
  189                154.33    146.07     61.56      0.00
  191                117.12    145.92     52.40      0.00
  193                101.97    146.03     55.48      0.00
  195                  0.00    146.10     56.59      0.00
  197                 24.37    145.92     53.26      0.00
  199                170.63    140.57     61.78      0.00
  201                 63.79    139.79     60.53      0.00
  203               4526.59    139.62     59.63      0.00
  204                  0.00    145.47     53.93      0.00
  205                 93.46    140.53     51.79      0.00
  206                  0.00    139.52     60.02      0.00
  207                 99.23    139.77     56.66      0.00
  208                  0.00    139.24     53.40      0.00
[...]
  219                 77.27    138.40     58.24     40.00
  225                 42.64    138.41     56.51     40.00
  229                120.02    138.53     55.47     18.29
  231                 30.82    138.52     57.85     40.00
  237                 29.19    138.66     54.02      0.00
  239                 83.42    138.65     54.44      0.52
  241                  0.00    138.65     54.44      0.78
  243                  8.12    138.65     54.01      0.00
  247                131.61    138.65     52.28      0.49
  249                  0.00    138.65     52.28      0.07
  251                 45.18    138.65     47.08      0.57
  253                101.95    138.68     44.49      0.57
  255                 75.53    138.78     48.43      0.57
  257                  0.00    150.92     58.03      0.00
  259                  0.00    150.44     54.35      0.00
  261                  0.00    148.72     64.44      0.00
  263                  0.00    148.53     64.36      0.00
  265                  0.00    148.47     64.33      0.00
  267                  0.00    146.59     54.42      0.00
  269                  0.00    147.24     63.80      0.00
  271                  0.00    146.92     61.06      0.00
  273                  0.00    142.33     58.20      0.00
  275                  0.00    141.82     57.12      0.00
  River           -13215.67    220.00      0.00      0.00  Reservoir
  Lake                 0.00    167.00      0.00      0.00  Reservoir
  1                 -441.29    147.52      6.77      0.00  Tank
  2                 -348.86    139.59     10.00      0.57  Tank
  3                  967.70    159.40     13.17      0.00  Tank
   
   
  Link Results at 23:55:00 hrs:
  ----------------------------------------------
                       Flow  Velocity  Headloss
  Link                  gpm       fps   /1000ft
  ----------------------------------------------
  20                -967.70      0.04      0.00
  40                 441.29      0.02      0.00
  50                 348.86      0.01      0.00
  60               13215.67      9.37      9.00
  101                  0.00      0.00      0.00
  103                107.67      0.17      0.01
  105               -462.87      1.31      0.61
  107                -31.61      0.09      0.00
  109               -141.42      0.23      0.02
  111               -574.14      1.63      0.91
  112                402.35      1.14      0.47
  113               -255.14      0.72      0.20
  114                 60.95      0.39      0.10
  115               -133.79      0.85      0.44
  116               -231.61      0.66      0.17
  117                684.41      1.94      1.26
  119               -694.51      1.97      1.29
  120               1229.33      3.49      3.72
  121               1087.37      3.08      2.96
  122                369.70      2.36      2.89
  123               9448.12      4.29      1.61
  125              11547.75      5.24      2.33
  129               1652.09      1.17      0.22
  131               1350.65      0.96      0.15
  133               -967.70      0.99      0.20
  135                349.92      0.25      0.01
  137                 79.94      0.13      0.01
  145                269.98      1.72      1.62
  147                258.97      1.65      1.50
  149               -428.51      2.74      3.80
  151               -416.92      2.66      3.61
  153                187.97      0.53      0.11
  155                239.63      0.68      0.18
  159               -255.62      0.73      0.20
  161               -306.24      1.95      2.04
  163               -133.58      0.38      0.06
  169                216.17      1.38      1.07
  171                442.85      1.26      0.56
  173               7446.58      3.38      1.04
  175               7349.73      3.34      1.01
  177               7272.46      3.30      0.99
  179               6968.69      3.16      0.92
  180                  4.86      0.01      0.00
  181                  4.86      0.01      0.00
  183               6717.46      3.05      0.86
  185                -27.23      0.17      0.02
  186                207.63      1.33      0.99
  187               6046.69      2.74      0.70
  189               4382.82      1.99      0.39
  191              -1590.31      1.13      0.20
  193              -1611.39      1.14      0.21
  195                 78.00      0.22      0.02
  197                -30.77      0.09      0.00
  199                410.52      1.16      0.49
  201                441.29      1.25      0.56
  202                476.12      3.04      4.62
  203                316.45      2.02      2.17
  204                476.12      1.35      0.64
  205                207.63      0.59      0.14
  207                -94.07      0.27      0.03
  209                265.09      1.69      1.56
  211                643.54      1.83      1.12
  213                -57.46      0.16      0.01
  215               -171.62      0.49      0.10
  217               -309.64      0.88      0.29
  219               -274.22      0.78      0.23
  221                274.22      1.75      1.66
  223               -213.94      0.61      0.15
  225               -182.07      0.52      0.11
  229               4382.82      3.11      1.15
  231               3924.38      2.78      0.94
  233               3641.93      2.58      0.95
  235                235.31      0.67      0.17
  237                495.99      1.41      0.69
  238                658.47      1.87      1.17
  239                292.24      0.83      0.26
  240                658.47      1.87      1.17
  241                658.47      1.87      1.17
  243                656.85      1.05      0.29
  245                433.56      0.69      0.13
  247                337.59      0.54      0.08
  249                165.20      0.26      0.02
  251                 77.27      0.16      0.01
  257                 42.64      0.12      0.01
  261                 69.90      0.45      0.13
  263                 30.82      0.09      0.00
  269                207.08      0.59      0.14
  271                 80.94      0.52      0.17
  273                 96.95      0.28      0.03
  275                 10.32      0.03      0.00
  277                  8.12      0.02      0.00
  281                  2.20      0.01      0.00
  283                  3.21      0.01      0.00
  285                -23.86      0.07      0.00
  287               -105.55      0.43      0.10
  289                348.86      1.43      0.88
  291                101.95      0.42      0.09
  293                 65.83      0.42      0.12
  295                -20.65      0.06      0.00
  297                511.66      3.27      5.28
  299                246.23      1.57      1.36
  301                246.23      1.57      1.36
  303                265.42      1.69      1.57
  305                172.75      0.49      0.10
  307                438.17      1.24      0.55
  309                228.76      1.46      1.19
  311               -400.38      1.14      0.47
  313                544.45      1.54      0.82
  315              -1689.39      1.20      0.23
  317                 93.21      0.59      0.23
  319                142.10      0.40      0.07
  321               6946.22      3.15      0.91
  323                199.03      0.56      0.13
  325                 99.09      0.63      0.25
  329              13215.67      6.00      3.04
  330                  0.00      0.00      0.00
  333                 -0.00      0.00      0.00
  10                   0.00      0.00      0.00  Pump
  335              13215.67      0.00    -92.93  Pump
   
   
  Node Results at 24:00:00 hrs:
  --------------------------------------------------------
                     Demand      Head  Pressure  Chemical
  Node                  gpm        ft       psi      mg/L
  --------------------------------------------------------
  10                   0.00    146.83     -0.07      0.00
  15                 666.18    122.62     39.27      0.00
  20                   0.00    159.43     13.19      0.00
  35                1416.02    147.58     58.53      0.00
  40                   0.00    147.47      6.75      0.00
  50                   0.00    139.47      9.95      0.57
  60                   0.00    209.08     90.60      0.00
  601                  0.00    302.93    131.26      0.00
  61                   0.00    302.93    131.26      0.00
  101                271.63    146.83     45.42      0.00
  103                190.48    146.81     44.98      0.00
  105                193.58    148.16     51.85      0.00
  107                 78.14    148.16     54.66      0.00
  109                330.90    146.81     54.82      0.00
  111                202.97    147.60     59.62      0.00
  113                 28.61    147.69     63.13      0.00
  115                 74.50    148.35     58.21      0.00
  117                168.33    151.39     59.71      0.00
  119                251.87    158.97     68.01      0.00
  120                  0.00    156.52     67.82      0.00
  121                 59.53    162.40     71.23      0.00
  123                  0.00    166.83     67.52      0.00
  125                 65.21    161.82     65.35      0.00
  127                 25.25    160.15     45.13      0.00
  129                  0.00    160.13     47.29      0.00
  131                 61.13    160.11     66.78      0.00
  139                  8.42    153.73     53.18      0.00
  141                 14.09    149.18     62.91      0.00
  143                  8.87    136.83     61.24      0.00
  145                 39.51    150.58     64.81      0.00
  147                 12.23    151.64     57.69      0.00
  149                 38.71    152.09     58.97      0.00
  151                206.61    156.50     53.29      0.00
  153                 63.16    156.60     39.17      0.00
  157                 74.06    156.59     62.17      0.00
  159                 59.09    153.32     63.84      0.00
  161                 22.59    151.11     63.74      0.00
  163                 13.47    150.66     63.12      0.00
  164                  0.00    150.66     63.12      0.00
  166                  3.72    150.66     66.15      0.00
  167                 20.82    148.85     66.66      0.00
  169                  0.00    148.85     66.66      0.00
  171                 56.26    147.80     65.78      0.00
  173                  0.00    147.78     65.77      0.00
  177                 83.18    147.58     60.48      0.00
  179                  0.00    147.57     60.48      0.00
  181                  0.00    147.59     60.48      0.00
  183                  0.00    147.57     59.18      0.00
  184                  0.00    146.07     56.36      0.00
  185                 36.68    146.72     56.64      0.00
  187                  0.00    147.39     58.45      0.00
  189                154.33    147.77     62.29      0.00
  191                117.12    147.59     53.12      0.00
  193                101.97    147.70     56.20      0.00
  195                  0.00    147.77     57.31      0.00
  197                 24.37    147.59     53.98      0.00
  199                170.63    142.06     62.42      0.00
  201                 63.79    141.26     61.16      0.00
  203               4526.59    141.09     60.27      0.00
  204                  0.00    147.15     54.66      0.00
  205                 93.46    142.01     52.43      0.00
  206                  0.00    140.78     60.57      0.00
  207                 99.23    141.15     57.26      0.00
  208                  0.00    140.35     53.88      0.00
  209                  1.24    139.61     61.36      0.00
  211                 12.40    139.37     57.35      0.00
  213                 19.93    139.28     57.32      0.00
  215                131.83    139.07     57.22     40.00
  217                 34.63    139.04     57.65     40.00
  219                 59.09    139.03     58.51     40.00
  225                 32.60    139.04     56.78     40.00
  229                 91.78    139.05     55.70     18.54
  231                 23.57    139.04     58.08     40.00
  237                 22.32    139.11     54.21      0.00
  239                 63.79    139.09     54.63      0.00
  241                  0.00    139.09     54.63      0.77
  243                  6.21    139.09     54.20      0.00
  247                100.64    139.09     52.47      0.48
  249                  0.00    139.09     52.47      0.42
  251                 34.55    139.09     47.27      0.57
  253                 77.96    139.06     44.66      0.57
  255                 57.76    139.12     48.58      0.57
  257                  0.00    153.37     59.09      0.00
  259                  0.00    152.93     55.43      0.00
  261                  0.00    151.34     65.58      0.00
  263                  0.00    151.18     65.51      0.00
  265                  0.00    149.43     64.75      0.00
  267                  0.00    147.79     54.94      0.00
  269                  0.00    148.19     64.21      0.00
  271                  0.00    147.65     61.38      0.00
  273                  0.00    142.01     58.07      0.00
  275                  0.00    141.26     56.87      0.00
  River           -13112.02    220.00      0.00      0.00  Reservoir
  Lake                 0.00    167.00      0.00      0.00  Reservoir
  1                  162.74    147.47      6.75      0.00  Tank
  2                 -221.52    139.47      9.95      0.57  Tank
  3                 2203.21    159.43     13.19      0.00  Tank
   
   
  Link Results at 24:00:00 hrs:
  ----------------------------------------------
                       Flow  Velocity  Headloss
  Link                  gpm       fps   /1000ft
  ----------------------------------------------
  20               -2203.21      0.09      0.00
  40                -162.74      0.01      0.00
  50                 221.52      0.01      0.00
  60               13112.02      9.30      8.87
  101                  0.00      0.00      0.00
  103                155.01      0.25      0.02
  105               -426.64      1.21      0.52
  107                 19.21      0.05      0.00
  109                -35.46      0.06      0.00
  111               -366.37      1.04      0.39
  112                477.23      1.35      0.64
  113               -124.01      0.35      0.05
  114                114.31      0.73      0.33
  115                -58.93      0.38      0.10
  116                -38.32      0.11      0.01
  117                639.43      1.81      1.11
  119               -724.97      2.06      1.40
  120               1164.64      3.30      3.36
  121               1042.82      2.96      2.74
  122                368.08      2.35      2.87
  123               9776.65      4.44      1.71
  125              13112.01      5.95      2.95
  129               2907.76      2.06      0.63
  131               2618.46      1.86      0.52
  133              -2203.21      2.25      0.91
  135                390.00      0.28      0.02
  137                 61.13      0.10      0.00
  145                328.87      2.10      2.33
  147                320.44      2.05      2.22
  149               -675.05      4.31      8.82
  151               -666.18      4.25      8.61
  153                368.69      1.05      0.40
  155                408.20      1.16      0.48
  159               -420.42      1.19      0.51
  161               -459.13      2.93      4.32
  163               -160.92      0.46      0.09
  169                224.09      1.43      1.14
  171                504.82      1.43      0.71
  173               7855.32      3.57      1.14
  175               7781.26      3.53      1.12
  177               7722.17      3.50      1.11
  179               7444.88      3.38      1.03
  180                  3.72      0.01      0.00
  181                  3.72      0.01      0.00
  183               7215.02      3.27      0.98
  185                -20.82      0.13      0.01
  186                332.05      2.12      2.37
  187               6581.61      2.99      0.82
  189               4931.71      2.24      0.48
  191              -1593.64      1.13      0.21
  193              -1416.02      1.00      0.16
  195                308.00      0.87      0.29
  197                224.82      0.64      0.16
  199                 62.08      0.18      0.01
  201               -162.74      0.46      0.09
  202                570.78      3.64      6.47
  203                275.40      1.76      1.68
  204                570.78      1.62      0.90
  205                332.05      0.94      0.33
  207                213.33      0.61      0.14
  209                179.11      1.14      0.76
  211                612.59      1.74      1.02
  213                152.94      0.43      0.08
  215                 64.56      0.18      0.02
  217               -262.53      0.74      0.21
  219               -254.70      0.72      0.20
  221                254.70      1.63      1.45
  223                  7.53      0.02      0.00
  225                 31.90      0.09      0.00
  229               4931.71      3.50      1.43
  231               4619.90      3.28      1.27
  233               4526.59      3.21      1.42
  235                141.18      0.40      0.07
  237                502.73      1.43      0.71
  238                548.79      1.56      0.83
  239                145.29      0.41      0.07
  240                548.79      1.56      0.83
  241                548.79      1.56      0.83
  243                547.54      0.87      0.20
  245                340.25      0.54      0.08
  247                258.16      0.41      0.05
  249                126.33      0.20      0.01
  251                 59.09      0.12      0.01
  257                 32.60      0.09      0.00
  261                 62.15      0.40      0.11
  263                 23.57      0.07      0.00
  269                194.90      0.55      0.12
  271                 53.19      0.34      0.08
  273                119.39      0.34      0.05
  275                 24.67      0.07      0.00
  277                  6.21      0.02      0.00
  281                 18.47      0.08      0.00
  283                 30.92      0.09      0.00
  285                -29.56      0.08      0.00
  287                -52.62      0.21      0.03
  289                221.52      0.90      0.38
  291                 77.96      0.32      0.05
  293                 33.19      0.21      0.03
  295                  1.36      0.00      0.00
  297                489.90      3.13      4.87
  299                235.39      1.50      1.25
  301                235.39      1.50      1.25
  303                254.51      1.62      1.45
  305                149.53      0.42      0.08
  307                404.04      1.15      0.47
  309                212.68      1.36      1.04
  311               -148.12      0.42      0.07
  313                482.21      1.37      0.66
  315              -1724.02      1.22      0.24
  317                115.76      0.74      0.34
  319                 25.42      0.07      0.00
  321               7427.70      3.37      1.03
  323                 29.52      0.08      0.00
  325                130.38      0.83      0.42
  329              13112.01      5.95      2.99
  330                  0.00      0.00      0.00
  333                 -0.00      0.00      0.00
  10                   0.00      0.00      0.00  Pump
  335              13112.02      0.00    -93.85  Pump
   
  Analysis ended Wed May 06 17:30:25 2020
