  Page 1                                    Wed May 06 17:31:57 2020

  ******************************************************************
  *                           E P A N E T                          *
  *                   Hydraulic and Water Quality                  *
  *                   Analysis for Pipe Networks                   *
  *                         Version 2.00.12                        *
  ******************************************************************
  
  Analysis begun Wed May 06 17:31:57 2020

   
  Hydraulic Status:
  -----------------------------------------------------------------------
     0:00:00: Balanced after 5 trials
     0:00:00: Reservoir River is emptying
     0:00:00: Reservoir Lake is closed
     0:00:00: Tank 1 is filling at 13.10 ft
     0:00:00: Tank 2 is emptying at 23.50 ft
     0:00:00: Tank 3 is filling at 29.00 ft
   
     0:05:00: Balanced after 2 trials
   
     0:10:00: Balanced after 2 trials
   
     0:15:00: Balanced after 2 trials
   
     0:20:00: Balanced after 2 trials
   
     0:25:00: Balanced after 2 trials
   
     0:30:00: Balanced after 2 trials
   
     0:35:00: Balanced after 2 trials
   
     0:40:00: Balanced after 2 trials
   
     0:45:00: Balanced after 2 trials
   
     0:50:00: Balanced after 2 trials
   
     0:55:00: Balanced after 2 trials
   
     1:00:00: Pump 10 changed by timer control
     1:00:00: Balanced after 7 trials
     1:00:00: Reservoir Lake is emptying
     1:00:00: Pump 10 changed from closed to open
   
     1:05:00: Balanced after 2 trials
   
     1:10:00: Balanced after 2 trials
   
     1:15:00: Balanced after 2 trials
   
     1:20:00: Balanced after 2 trials
   
     1:25:00: Balanced after 2 trials
   
     1:30:00: Balanced after 2 trials
   
     1:35:00: Balanced after 2 trials
   
     1:40:00: Balanced after 2 trials
   
     1:45:00: Balanced after 2 trials
   
     1:50:00: Balanced after 2 trials
   
     1:55:00: Balanced after 2 trials
   
     2:00:00: Balanced after 3 trials
     2:00:00: Tank 2 is filling at 21.23 ft
   
     2:05:00: Balanced after 1 trials
   
     2:10:00: Balanced after 1 trials
   
     2:15:00: Balanced after 1 trials
   
     2:20:00: Balanced after 1 trials
   
     2:25:00: Balanced after 1 trials
   
     2:30:00: Balanced after 1 trials
   
     2:35:00: Balanced after 1 trials
   
     2:40:00: Balanced after 1 trials
   
     2:45:00: Balanced after 1 trials
   
     2:50:00: Balanced after 1 trials
   
     2:55:00: Balanced after 1 trials
   
     3:00:00: Balanced after 3 trials
     3:00:00: Tank 2 is emptying at 21.70 ft
   
     3:05:00: Balanced after 2 trials
   
     3:10:00: Balanced after 2 trials
   
     3:15:00: Balanced after 2 trials
   
     3:20:00: Balanced after 2 trials
   
     3:25:00: Balanced after 2 trials
   
     3:30:00: Balanced after 2 trials
   
     3:35:00: Balanced after 2 trials
   
     3:40:00: Balanced after 1 trials
   
     3:45:00: Balanced after 1 trials
   
     3:50:00: Balanced after 1 trials
   
     3:55:00: Balanced after 1 trials
   
     4:00:00: Balanced after 4 trials
     4:00:00: Tank 2 is filling at 21.02 ft
   
     4:05:00: Balanced after 1 trials
   
     4:10:00: Balanced after 1 trials
   
     4:15:00: Balanced after 1 trials
   
     4:20:00: Balanced after 1 trials
   
     4:25:00: Balanced after 1 trials
   
     4:30:00: Balanced after 1 trials
   
     4:32:44: Pump 335 changed by Tank 1 control
     4:32:44: Pipe 330 changed by Tank 1 control
     4:32:44: Balanced after 4 trials
     4:32:44: Pipe 330 changed from closed to open
     4:32:44: Pump 335 changed from open to closed
   
     4:35:00: Balanced after 1 trials
   
     4:40:00: Balanced after 2 trials
   
     4:45:00: Balanced after 2 trials
   
     4:50:00: Balanced after 2 trials
   
     4:55:00: Balanced after 2 trials
   
     5:00:00: Balanced after 3 trials
     5:00:00: Tank 3 is emptying at 34.51 ft
   
     5:05:00: Balanced after 2 trials
   
     5:10:00: Balanced after 2 trials
   
     5:15:00: Balanced after 2 trials
   
     5:20:00: Balanced after 2 trials
   
     5:25:00: Balanced after 2 trials
   
     5:30:00: Balanced after 2 trials
   
     5:35:00: Balanced after 2 trials
   
     5:40:00: Balanced after 2 trials
   
     5:45:00: Balanced after 2 trials
   
     5:50:00: Balanced after 2 trials
   
     5:55:00: Balanced after 2 trials
   
     6:00:00: Balanced after 3 trials
     6:00:00: Tank 3 is filling at 34.43 ft
   
     6:05:00: Balanced after 1 trials
   
     6:10:00: Balanced after 1 trials
   
     6:15:00: Balanced after 1 trials
   
     6:20:00: Balanced after 1 trials
   
     6:25:00: Balanced after 1 trials
   
     6:30:00: Balanced after 1 trials
   
     6:35:00: Balanced after 1 trials
   
     6:40:00: Balanced after 1 trials
   
     6:45:00: Balanced after 1 trials
   
     6:50:00: Balanced after 1 trials
   
     6:55:00: Balanced after 1 trials
   
     7:00:00: Balanced after 3 trials
   
     7:05:00: Balanced after 1 trials
   
     7:10:00: Balanced after 1 trials
   
     7:15:00: Balanced after 1 trials
   
     7:20:00: Balanced after 1 trials
   
     7:25:00: Balanced after 1 trials
   
     7:30:00: Balanced after 1 trials
   
     7:35:00: Balanced after 1 trials
   
     7:40:00: Balanced after 1 trials
   
     7:45:00: Balanced after 1 trials
   
     7:50:00: Balanced after 1 trials
   
     7:55:00: Balanced after 1 trials
   
     8:00:00: Balanced after 3 trials
     8:00:00: Tank 1 is emptying at 21.79 ft
   
     8:05:00: Balanced after 2 trials
   
     8:10:00: Balanced after 2 trials
   
     8:15:00: Balanced after 1 trials
   
     8:20:00: Balanced after 1 trials
   
     8:25:00: Balanced after 1 trials
   
     8:30:00: Balanced after 1 trials
     8:30:00: Tank 1 is filling at 21.78 ft
   
     8:35:00: Balanced after 1 trials
   
     8:40:00: Balanced after 1 trials
   
     8:45:00: Balanced after 1 trials
   
     8:50:00: Balanced after 1 trials
   
     8:55:00: Balanced after 1 trials
   
     9:00:00: Balanced after 3 trials
     9:00:00: Tank 3 is emptying at 35.24 ft
   
     9:05:00: Balanced after 2 trials
   
     9:10:00: Balanced after 2 trials
   
     9:15:00: Balanced after 2 trials
   
     9:20:00: Balanced after 2 trials
   
     9:25:00: Balanced after 2 trials
   
     9:30:00: Balanced after 2 trials
   
     9:35:00: Balanced after 2 trials
   
     9:40:00: Balanced after 2 trials
   
     9:45:00: Balanced after 2 trials
   
     9:50:00: Balanced after 2 trials
   
     9:55:00: Balanced after 2 trials
   
    10:00:00: Balanced after 3 trials
   
    10:05:00: Balanced after 2 trials
   
    10:10:00: Balanced after 2 trials
   
    10:15:00: Balanced after 2 trials
   
    10:20:00: Balanced after 2 trials
   
    10:25:00: Balanced after 2 trials
   
    10:30:00: Balanced after 2 trials
   
    10:35:00: Balanced after 2 trials
   
    10:40:00: Balanced after 2 trials
   
    10:45:00: Balanced after 2 trials
   
    10:50:00: Balanced after 2 trials
   
    10:55:00: Balanced after 2 trials
   
    11:00:00: Balanced after 3 trials
    11:00:00: Tank 1 is emptying at 22.48 ft
   
    11:05:00: Balanced after 1 trials
   
    11:10:00: Balanced after 1 trials
   
    11:15:00: Balanced after 1 trials
   
    11:20:00: Balanced after 1 trials
   
    11:25:00: Balanced after 1 trials
   
    11:30:00: Balanced after 1 trials
   
    11:35:00: Balanced after 1 trials
   
    11:40:00: Balanced after 1 trials
   
    11:45:00: Balanced after 1 trials
   
    11:50:00: Balanced after 1 trials
   
    11:55:00: Balanced after 1 trials
   
    12:00:00: Balanced after 3 trials
    12:00:00: Tank 2 is emptying at 27.95 ft
   
    12:05:00: Balanced after 1 trials
   
    12:10:00: Balanced after 1 trials
   
    12:15:00: Balanced after 1 trials
   
    12:20:00: Balanced after 1 trials
   
    12:25:00: Balanced after 1 trials
   
    12:30:00: Balanced after 1 trials
   
    12:35:00: Balanced after 1 trials
   
    12:40:00: Balanced after 1 trials
   
    12:45:00: Balanced after 1 trials
   
    12:50:00: Balanced after 1 trials
   
    12:55:00: Balanced after 1 trials
   
    13:00:00: Balanced after 3 trials
    13:00:00: Tank 2 is filling at 27.51 ft
   
    13:05:00: Balanced after 1 trials
   
    13:10:00: Balanced after 1 trials
   
    13:15:00: Balanced after 1 trials
   
    13:20:00: Balanced after 1 trials
   
    13:25:00: Balanced after 1 trials
   
    13:30:00: Balanced after 1 trials
   
    13:35:00: Balanced after 1 trials
   
    13:40:00: Balanced after 1 trials
   
    13:45:00: Balanced after 1 trials
   
    13:50:00: Balanced after 1 trials
   
    13:55:00: Balanced after 1 trials
   
    14:00:00: Balanced after 3 trials
    14:00:00: Tank 1 is filling at 21.48 ft
   
    14:05:00: Balanced after 2 trials
   
    14:10:00: Balanced after 2 trials
   
    14:15:00: Balanced after 2 trials
   
    14:20:00: Balanced after 2 trials
   
    14:25:00: Balanced after 2 trials
   
    14:30:00: Balanced after 2 trials
   
    14:35:00: Balanced after 2 trials
   
    14:40:00: Balanced after 2 trials
   
    14:45:00: Balanced after 2 trials
   
    14:50:00: Balanced after 2 trials
   
    14:55:00: Balanced after 2 trials
   
    15:00:00: Pump 10 changed by timer control
    15:00:00: Balanced after 5 trials
    15:00:00: Reservoir Lake is closed
    15:00:00: Tank 1 is emptying at 22.12 ft
    15:00:00: Tank 2 is emptying at 28.18 ft
    15:00:00: Pump 10 changed from open to closed
   
    15:05:00: Balanced after 1 trials
   
    15:10:00: Balanced after 1 trials
   
    15:15:00: Balanced after 1 trials
   
    15:20:00: Balanced after 1 trials
   
    15:25:00: Balanced after 1 trials
   
    15:30:00: Balanced after 1 trials
   
    15:35:00: Balanced after 1 trials
   
    15:40:00: Balanced after 1 trials
   
    15:45:00: Balanced after 1 trials
   
    15:50:00: Balanced after 1 trials
   
    15:55:00: Balanced after 1 trials
   
    16:00:00: Balanced after 4 trials
   
    16:05:00: Balanced after 2 trials
   
    16:10:00: Balanced after 2 trials
   
    16:15:00: Balanced after 2 trials
   
    16:20:00: Balanced after 2 trials
   
    16:25:00: Balanced after 2 trials
   
    16:30:00: Balanced after 2 trials
   
    16:35:00: Balanced after 2 trials
   
    16:40:00: Balanced after 2 trials
   
    16:45:00: Balanced after 2 trials
   
    16:50:00: Balanced after 1 trials
   
    16:55:00: Balanced after 1 trials
   
    17:00:00: Balanced after 2 trials
    17:00:00: Tank 2 is filling at 27.39 ft
   
    17:05:00: Balanced after 2 trials
    17:05:00: Tank 2 is emptying at 27.39 ft
   
    17:10:00: Balanced after 2 trials
   
    17:15:00: Balanced after 2 trials
   
    17:20:00: Balanced after 2 trials
   
    17:25:00: Balanced after 2 trials
   
    17:30:00: Balanced after 2 trials
   
    17:35:00: Balanced after 1 trials
   
    17:40:00: Balanced after 1 trials
   
    17:45:00: Balanced after 1 trials
   
    17:50:00: Balanced after 1 trials
   
    17:55:00: Balanced after 1 trials
   
    18:00:00: Balanced after 3 trials
    18:00:00: Tank 2 is filling at 27.30 ft
   
    18:05:00: Balanced after 2 trials
   
    18:10:00: Balanced after 1 trials
   
    18:15:00: Balanced after 1 trials
    18:15:00: Tank 2 is emptying at 27.30 ft
   
    18:20:00: Balanced after 1 trials
   
    18:25:00: Balanced after 1 trials
   
    18:30:00: Balanced after 1 trials
   
    18:35:00: Balanced after 1 trials
   
    18:40:00: Balanced after 1 trials
   
    18:45:00: Balanced after 1 trials
   
    18:50:00: Balanced after 1 trials
   
    18:55:00: Balanced after 1 trials
   
    19:00:00: Balanced after 3 trials
    19:00:00: Tank 2 is filling at 27.24 ft
   
    19:05:00: Balanced after 2 trials
   
    19:10:00: Balanced after 2 trials
   
    19:15:00: Balanced after 2 trials
   
    19:20:00: Balanced after 2 trials
   
    19:25:00: Balanced after 2 trials
   
    19:30:00: Balanced after 2 trials
   
    19:35:00: Balanced after 2 trials
   
    19:40:00: Balanced after 2 trials
   
    19:45:00: Balanced after 2 trials
   
    19:50:00: Balanced after 2 trials
   
    19:55:00: Balanced after 2 trials
   
    20:00:00: Balanced after 3 trials
    20:00:00: Tank 2 is emptying at 27.58 ft
   
    20:05:00: Balanced after 1 trials
   
    20:10:00: Balanced after 1 trials
   
    20:15:00: Balanced after 1 trials
   
    20:20:00: Balanced after 1 trials
   
    20:25:00: Balanced after 1 trials
   
    20:30:00: Balanced after 1 trials
   
    20:35:00: Balanced after 1 trials
   
    20:40:00: Balanced after 1 trials
   
    20:45:00: Balanced after 1 trials
   
    20:50:00: Balanced after 1 trials
   
    20:55:00: Balanced after 1 trials
   
    21:00:00: Balanced after 3 trials
   
    21:05:00: Balanced after 1 trials
   
    21:10:00: Balanced after 1 trials
   
    21:15:00: Balanced after 1 trials
   
    21:20:00: Balanced after 1 trials
   
    21:25:00: Pump 335 changed by Tank 1 control
    21:25:00: Pipe 330 changed by Tank 1 control
    21:25:00: Balanced after 5 trials
    21:25:00: Tank 1 is filling at 17.10 ft
    21:25:00: Tank 3 is filling at 29.58 ft
    21:25:00: Pipe 330 changed from open to closed
    21:25:00: Pump 335 changed from closed to open
   
    21:30:00: Balanced after 2 trials
   
    21:35:00: Balanced after 2 trials
   
    21:40:00: Balanced after 2 trials
   
    21:45:00: Balanced after 2 trials
   
    21:50:00: Balanced after 2 trials
   
    21:55:00: Balanced after 2 trials
   
    22:00:00: Balanced after 3 trials
   
    22:05:00: Balanced after 2 trials
   
    22:10:00: Balanced after 2 trials
   
    22:15:00: Balanced after 2 trials
   
    22:20:00: Balanced after 2 trials
   
    22:25:00: Balanced after 2 trials
   
    22:30:00: Balanced after 2 trials
   
    22:35:00: Balanced after 2 trials
   
    22:40:00: Balanced after 2 trials
   
    22:45:00: Balanced after 2 trials
   
    22:50:00: Balanced after 2 trials
   
    22:55:00: Balanced after 2 trials
   
    23:00:00: Balanced after 3 trials
    23:00:00: Tank 1 is emptying at 17.47 ft
   
    23:05:00: Balanced after 2 trials
   
    23:10:00: Balanced after 2 trials
   
    23:15:00: Balanced after 2 trials
   
    23:20:00: Balanced after 2 trials
   
    23:25:00: Balanced after 2 trials
   
    23:30:00: Balanced after 2 trials
   
    23:35:00: Balanced after 2 trials
   
    23:40:00: Balanced after 2 trials
   
    23:45:00: Balanced after 2 trials
   
    23:50:00: Balanced after 2 trials
   
    23:55:00: Balanced after 2 trials
   
    24:00:00: Balanced after 3 trials
    24:00:00: Tank 1 is filling at 17.41 ft
   
   
  Node Results at 0:00:00 hrs:
  --------------------------------------------------------
                     Demand      Head  Pressure  Chemical
  Node                  gpm        ft       psi      mg/L
  --------------------------------------------------------
  10                   0.00    145.71     -0.56      0.00
  15                 586.87    128.92     41.99      0.00
  20                   0.00    158.00     12.57      0.00
  35                1663.77    145.79     57.76      0.00
  40                   0.00    145.00      5.68      0.00
  50                   0.00    140.00     10.18      0.00
  60                   0.00    209.01     90.57      0.00
  601                  0.00    302.48    131.06      0.00
  61                   0.00    302.48    131.06      0.00
  101                248.83    145.71     44.94      0.00
  103                174.49    145.68     44.49      0.00
  105                177.33    147.00     51.35      0.00
  107                 71.58    146.99     54.16      0.00
  109                303.13    145.68     54.33      0.00
  111                185.94    146.24     59.03      0.00
  113                 26.21    146.27     62.51      0.00
  115                 68.25    147.07     57.66      0.00
  117                154.20    150.18     59.18      0.00
  119                230.73    157.64     67.44      0.00
  120                  0.00    155.23     67.26      0.00
  121                 54.54    161.08     70.66      0.00
  123                  0.00    165.54     66.96      0.00
  125                 59.74    160.49     64.77      0.00
  127                 23.13    158.77     44.53      0.00
  129                  0.00    158.76     46.69      0.00
  131                 56.00    158.74     66.18      0.00
  139                  7.72    153.59     53.12      0.00
  141                 12.90    149.93     63.23      0.00
  143                  8.12    140.15     62.68      0.00
  145                 36.20    151.02     65.00      0.00
  147                 11.20    151.86     57.78      0.00
  149                 35.46    152.21     59.02      0.00
  151                189.27    155.71     52.96      0.00
  153                 57.86    155.81     38.83      0.00
  157                 67.84    155.20     61.57      0.00
  159                 54.13    151.83     63.19      0.00
  161                 20.70    149.55     63.07      0.00
  163                 12.34    149.09     62.43      0.00
  164                  0.00    149.09     62.43      0.00
  166                  3.41    149.09     65.47      0.00
  167                 19.07    147.21     65.95      0.00
  169                  0.00    147.22     65.95      0.00
  171                 51.54    146.12     65.05      0.00
  173                  0.00    146.10     65.04      0.00
  177                 76.20    145.78     59.70      0.00
  179                  0.00    145.77     59.69      0.00
  181                  0.00    145.80     59.71      0.00
  183                  0.00    145.77     58.40      0.00
  184                  0.00    144.56     55.71      0.00
  185                 33.60    145.15     55.96      0.00
  187                  0.00    145.88     57.79      0.00
  189                141.38    146.18     61.61      0.00
  191                107.29    146.17     52.50      0.00
  193                 93.42    146.26     55.58      0.00
  195                  0.00    146.33     56.69      0.00
  197                 22.32    146.18     53.38      0.00
  199                156.31    140.88     61.91      0.00
  201                 58.44    140.14     60.68      0.00
  203               4459.30    139.97     59.78      0.00
  204                  0.00    145.62     54.00      0.00
  205                 85.62    140.85     51.93      0.00
  206                  0.00    139.94     60.20      0.00
  207                 90.90    140.14     56.82      0.00
  208                  0.00    139.72     53.61      0.00
  209                  1.14    139.33     61.24      0.00
  211                 11.36    139.20     57.28      0.00
  213                 18.26    139.14     57.26      0.00
  215                120.77    138.95     57.17      0.00
  217                 31.73    138.93     57.60      0.00
  219                 54.13    138.92     58.46      0.00
  225                 29.87    138.93     56.73      0.00
  229                 84.08    139.05     55.70      0.00
  231                 21.59    139.04     58.08      0.00
  237                 20.45    139.15     54.23      0.00
  239                 58.44    139.15     54.66      0.00
  241                  0.00    139.15     54.66      0.00
  243                  5.69    139.15     54.23      0.00
  247                 92.20    139.15     52.49      0.00
  249                  0.00    139.15     52.49      0.00
  251                 31.65    139.16     47.30      0.00
  253                 71.42    139.27     44.75      0.00
  255                 52.91    139.32     48.67      0.00
  257                  0.00    152.13     58.55      0.00
  259                  0.00    151.70     54.90      0.00
  261                  0.00    150.13     65.05      0.00
  263                  0.00    149.97     64.98      0.00
  265                  0.00    147.81     64.05      0.00
  267                  0.00    146.28     54.28      0.00
  269                  0.00    146.57     63.51      0.00
  271                  0.00    145.89     60.61      0.00
  273                  0.00    140.85     57.56      0.00
  275                  0.00    140.15     56.39      0.00
  River           -13155.45    220.00      0.00      0.00  Reservoir
  Lake                 0.00    167.00      0.00      0.00  Reservoir
  1                  477.19    145.00      5.68      0.00  Tank
  2                 -317.54    140.00     10.18      0.00  Tank
  3                 2292.83    158.00     12.57      0.00  Tank
   
   
  Link Results at 0:00:00 hrs:
  ----------------------------------------------
                       Flow  Velocity  Headloss
  Link                  gpm       fps   /1000ft
  ----------------------------------------------
  20               -2292.83      0.10      0.00
  40                -477.19      0.02      0.00
  50                 317.54      0.01      0.00
  60               13155.45      9.33      8.92
  101                  0.00      0.00      0.00
  103                171.35      0.27      0.02
  105               -420.18      1.19      0.51
  107                 36.10      0.10      0.01
  109                 -3.15      0.01      0.00
  111               -306.28      0.87      0.28
  112                502.94      1.43      0.71
  113                -66.16      0.19      0.02
  114                126.64      0.81      0.40
  115                -35.48      0.23      0.04
  116                 34.27      0.10      0.00
  117                633.62      1.80      1.09
  119               -733.31      2.08      1.43
  120               1153.98      3.27      3.30
  121               1034.96      2.94      2.70
  122                367.14      2.34      2.86
  123               9797.80      4.45      1.72
  125              13155.45      5.97      2.97
  129               2935.97      2.08      0.64
  131               2664.82      1.89      0.53
  133              -2292.83      2.34      0.98
  135                348.85      0.25      0.01
  137                 56.00      0.09      0.00
  145                292.85      1.87      1.88
  147                285.13      1.82      1.79
  149               -594.99      3.80      6.98
  151               -586.87      3.75      6.81
  153                322.76      0.92      0.31
  155                358.96      1.02      0.38
  159               -370.16      1.05      0.40
  161               -405.62      2.59      3.43
  163               -153.55      0.44      0.08
  169                211.42      1.35      1.03
  171                441.34      1.25      0.56
  173               7971.75      3.62      1.17
  175               7903.91      3.59      1.16
  177               7849.78      3.56      1.14
  179               7579.35      3.44      1.07
  180                  3.41      0.01      0.00
  181                  3.41      0.01      0.00
  183               7358.35      3.34      1.01
  185                -19.07      0.12      0.01
  186                345.83      2.21      2.56
  187               6732.24      3.06      0.86
  189               4694.97      2.13      0.44
  191              -1985.73      1.41      0.31
  193              -1663.77      1.18      0.22
  195                468.90      1.33      0.62
  197                392.70      1.11      0.45
  199                -84.49      0.24      0.03
  201               -477.19      1.35      0.64
  202                543.73      3.47      5.91
  203                231.50      1.48      1.22
  204                543.73      1.54      0.82
  205                345.83      0.98      0.35
  207                315.99      0.90      0.30
  209                158.04      1.01      0.60
  211                607.04      1.72      1.01
  213                187.79      0.53      0.11
  215                155.30      0.44      0.08
  217               -240.53      0.68      0.18
  219               -249.73      0.71      0.19
  221                249.73      1.59      1.40
  223                 54.55      0.15      0.01
  225                 76.88      0.22      0.02
  229               4694.97      3.33      1.31
  231               4430.91      3.14      1.17
  233               4459.30      3.16      1.38
  235                107.75      0.31      0.04
  237                454.28      1.29      0.59
  238                388.13      1.10      0.44
  239                 24.75      0.07      0.00
  240                388.13      1.10      0.44
  241                388.13      1.10      0.44
  243                386.99      0.62      0.11
  245                291.97      0.47      0.06
  247                236.49      0.38      0.04
  249                115.73      0.18      0.01
  251                 54.13      0.11      0.01
  257                 29.87      0.08      0.00
  261                 37.22      0.24      0.04
  263                 21.59      0.06      0.00
  269                 83.66      0.24      0.03
  271                 68.45      0.44      0.13
  273                 -5.24      0.01      0.00
  275                -21.61      0.06      0.00
  277                  5.69      0.02      0.00
  281                -27.30      0.11      0.01
  283                -42.07      0.12      0.01
  285                  0.51      0.00      0.00
  287               -120.00      0.49      0.12
  289                317.54      1.30      0.74
  291                 71.42      0.29      0.05
  293                 73.21      0.47      0.14
  295                -41.56      0.12      0.01
  297                486.16      3.10      4.80
  299                233.57      1.49      1.24
  301                233.57      1.49      1.24
  303                252.59      1.61      1.43
  305                147.46      0.42      0.07
  307                400.05      1.13      0.46
  309                205.25      1.31      0.97
  311                -49.95      0.14      0.01
  313                460.10      1.31      0.60
  315              -2132.67      1.51      0.35
  317                111.58      0.71      0.31
  319                 -3.82      0.01      0.00
  321               7563.60      3.43      1.07
  323                -86.83      0.25      0.03
  325                146.94      0.94      0.52
  329              13155.45      5.97      3.01
  330                  0.00      0.00      0.00
  333                 -0.00      0.00      0.00
  10                   0.00      0.00      0.00  Pump
  335              13155.45      0.00    -93.46  Pump
   
   
  Node Results at 0:05:00 hrs:
  --------------------------------------------------------
                     Demand      Head  Pressure  Chemical
  Node                  gpm        ft       psi      mg/L
  --------------------------------------------------------
  10                   0.00    145.75     -0.54      0.00
  15                 586.87    128.98     42.02      0.00
  20                   0.00    158.07     12.60      0.00
  35                1663.77    145.83     57.77      0.00
  40                   0.00    145.06      5.70      0.00
  50                   0.00    139.89     10.14      0.00
  60                   0.00    209.02     90.57      0.00
  601                  0.00    302.50    131.07      0.00
  61                   0.00    302.50    131.07      0.00
  101                248.83    145.75     44.96      0.00
  103                174.49    145.72     44.51      0.00
  105                177.33    147.05     51.37      0.00
  107                 71.58    147.04     54.18      0.00
  109                303.13    145.72     54.34      0.00
  111                185.94    146.29     59.05      0.00
  113                 26.21    146.31     62.53      0.00
  115                 68.25    147.11     57.68      0.00
  117                154.20    150.23     59.20      0.00
  119                230.73    157.70     67.46      0.00
  120                  0.00    155.28     67.28      0.00
  121                 54.54    161.14     70.69      0.00
  123                  0.00    165.59     66.99      0.00
  125                 59.74    160.55     64.80      0.00
  127                 23.13    158.84     44.56      0.00
  129                  0.00    158.83     46.72      0.00
  131                 56.00    158.81     66.21      0.00
  139                  7.72    153.65     53.15      0.00
  141                 12.90    149.98     63.26      0.00
  143                  8.12    140.21     62.70      0.00
  145                 36.20    151.08     65.03      0.00
  147                 11.20    151.91     57.81      0.00
  149                 35.46    152.27     59.05      0.00
  151                189.27    155.77     52.98      0.00
  153                 57.86    155.86     38.85      0.00
  157                 67.84    155.25     61.59      0.00
  159                 54.13    151.88     63.21      0.00
  161                 20.70    149.60     63.09      0.00
  163                 12.34    149.13     62.45      0.00
  164                  0.00    149.13     62.45      0.00
  166                  3.41    149.13     65.49      0.00
  167                 19.07    147.26     65.97      0.00
  169                  0.00    147.26     65.97      0.00
  171                 51.54    146.16     65.07      0.00
  173                  0.00    146.14     65.06      0.00
  177                 76.20    145.82     59.72      0.00
  179                  0.00    145.81     59.71      0.00
  181                  0.00    145.84     59.73      0.00
  183                  0.00    145.81     58.41      0.00
  184                  0.00    144.60     55.72      0.00
  185                 33.60    145.19     55.98      0.00
  187                  0.00    145.92     57.81      0.00
  189                141.38    146.22     61.62      0.00
  191                107.29    146.21     52.52      0.00
  193                 93.42    146.31     55.59      0.00
  195                  0.00    146.38     56.71      0.00
  197                 22.32    146.23     53.39      0.00
  199                156.31    140.90     61.92      0.00
  201                 58.44    140.15     60.69      0.00
  203               4459.30    139.99     59.79      0.00
  204                  0.00    145.66     54.02      0.00
  205                 85.62    140.87     51.94      0.00
  206                  0.00    139.95     60.21      0.00
  207                 90.90    140.15     56.83      0.00
  208                  0.00    139.71     53.60      0.00
  209                  1.14    139.30     61.23      0.00
  211                 11.36    139.16     57.27      0.00
  213                 18.26    139.10     57.24      0.00
  215                120.77    138.92     57.16      0.00
  217                 31.73    138.90     57.58      0.00
  219                 54.13    138.89     58.45      0.00
  225                 29.87    138.89     56.71      0.00
  229                 84.08    139.00     55.68      0.00
  231                 21.59    139.00     58.06      0.00
  237                 20.45    139.10     54.21      0.00
  239                 58.44    139.10     54.64      0.00
  241                  0.00    139.10     54.64      0.00
  243                  5.69    139.10     54.21      0.00
  247                 92.20    139.10     52.47      0.00
  249                  0.00    139.10     52.47      0.00
  251                 31.65    139.11     47.28      0.00
  253                 71.42    139.20     44.72      0.00
  255                 52.91    139.25     48.64      0.00
  257                  0.00    152.18     58.57      0.00
  259                  0.00    151.75     54.92      0.00
  261                  0.00    150.18     65.07      0.00
  263                  0.00    150.02     65.00      0.00
  265                  0.00    147.85     64.07      0.00
  267                  0.00    146.32     54.30      0.00
  269                  0.00    146.61     63.52      0.00
  271                  0.00    145.93     60.63      0.00
  273                  0.00    140.87     57.57      0.00
  275                  0.00    140.16     56.40      0.00
  River           -13153.58    220.00      0.00      0.00  Reservoir
  Lake                 0.00    167.00      0.00      0.00  Reservoir
  1                  472.08    145.06      5.70      0.00  Tank
  2                 -306.75    139.89     10.14      0.00  Tank
  3                 2285.29    158.07     12.60      0.00  Tank
   
   
  Link Results at 0:05:00 hrs:
  ----------------------------------------------
                       Flow  Velocity  Headloss
  Link                  gpm       fps   /1000ft
  ----------------------------------------------
  20               -2285.29      0.10      0.00
  40                -472.08      0.02      0.00
  50                 306.75      0.01      0.00
  60               13153.58      9.33      8.92
  101                  0.00      0.00      0.00
  103                171.53      0.27      0.02
  105               -420.36      1.19      0.51
  107                 36.22      0.10      0.01
  109                 -2.96      0.00      0.00
  111               -306.10      0.87      0.28
  112                503.34      1.43      0.71
  113                -65.85      0.19      0.02
  114                126.76      0.81      0.40
  115                -35.36      0.23      0.04
  116                 34.70      0.10      0.01
  117                633.91      1.80      1.09
  119               -733.72      2.08      1.43
  120               1154.51      3.28      3.31
  121               1035.45      2.94      2.70
  122                367.32      2.34      2.86
  123               9803.04      4.45      1.72
  125              13153.58      5.97      2.97
  129               2928.68      2.08      0.63
  131               2657.43      1.88      0.53
  133              -2285.29      2.33      0.97
  135                349.00      0.25      0.01
  137                 56.00      0.09      0.00
  145                293.00      1.87      1.88
  147                285.29      1.82      1.79
  149               -594.99      3.80      6.98
  151               -586.87      3.75      6.81
  153                322.61      0.92      0.31
  155                358.81      1.02      0.38
  159               -370.01      1.05      0.40
  161               -405.47      2.59      3.43
  163               -153.65      0.44      0.08
  169                211.51      1.35      1.03
  171                441.09      1.25      0.56
  173               7976.72      3.62      1.18
  175               7908.88      3.59      1.16
  177               7854.75      3.57      1.14
  179               7584.24      3.44      1.07
  180                  3.41      0.01      0.00
  181                  3.41      0.01      0.00
  183               7363.25      3.34      1.01
  185                -19.07      0.12      0.01
  186                346.47      2.21      2.57
  187               6737.21      3.06      0.86
  189               4704.48      2.14      0.44
  191              -1981.20      1.41      0.31
  193              -1663.77      1.18      0.22
  195                464.44      1.32      0.61
  197                388.24      1.10      0.44
  199                -83.84      0.24      0.03
  201               -472.08      1.34      0.63
  202                545.02      3.48      5.94
  203                232.15      1.48      1.22
  204                545.02      1.55      0.82
  205                346.47      0.98      0.36
  207                315.99      0.90      0.30
  209                158.25      1.01      0.60
  211                606.97      1.72      1.01
  213                188.22      0.53      0.11
  215                155.66      0.44      0.08
  217               -240.68      0.68      0.18
  219               -249.81      0.71      0.19
  221                249.81      1.59      1.40
  223                 54.83      0.16      0.01
  225                 77.15      0.22      0.02
  229               4704.48      3.34      1.31
  231               4439.26      3.15      1.18
  233               4459.30      3.16      1.38
  235                108.91      0.31      0.04
  237                456.44      1.29      0.59
  238                398.92      1.13      0.46
  239                 33.38      0.09      0.00
  240                398.92      1.13      0.46
  241                398.92      1.13      0.46
  243                397.78      0.63      0.11
  245                293.47      0.47      0.06
  247                236.49      0.38      0.04
  249                115.73      0.18      0.01
  251                 54.13      0.11      0.01
  257                 29.87      0.08      0.00
  261                 38.71      0.25      0.04
  263                 21.59      0.06      0.00
  269                 92.96      0.26      0.03
  271                 66.95      0.43      0.12
  273                  5.56      0.02      0.00
  275                -16.32      0.05      0.00
  277                  5.69      0.02      0.00
  281                -22.00      0.09      0.01
  283                -36.57      0.10      0.01
  285                 -1.02      0.00      0.00
  287               -113.18      0.46      0.11
  289                306.75      1.25      0.69
  291                 71.42      0.29      0.05
  293                 69.23      0.44      0.13
  295                -37.58      0.11      0.01
  297                486.38      3.10      4.81
  299                233.68      1.49      1.24
  301                233.68      1.49      1.24
  303                252.71      1.61      1.43
  305                147.53      0.42      0.07
  307                400.23      1.14      0.46
  309                205.24      1.31      0.97
  311                -49.59      0.14      0.01
  313                459.96      1.30      0.60
  315              -2128.21      1.51      0.35
  317                111.87      0.71      0.32
  319                 -2.95      0.01      0.00
  321               7568.50      3.44      1.07
  323                -78.48      0.22      0.02
  325                147.01      0.94      0.52
  329              13153.58      5.97      3.01
  330                  0.00      0.00      0.00
  333                 -0.00      0.00      0.00
  10                   0.00      0.00      0.00  Pump
  335              13153.59      0.00    -93.48  Pump
   
   
  Node Results at 0:10:00 hrs:
  --------------------------------------------------------
                     Demand      Head  Pressure  Chemical
  Node                  gpm        ft       psi      mg/L
  --------------------------------------------------------
  10                   0.00    145.80     -0.52      0.00
  15                 586.87    129.04     42.05      0.00
  20                   0.00    158.14     12.63      0.00
  35                1663.77    145.87     57.79      0.00
  40                   0.00    145.11      5.72      0.00
  50                   0.00    139.79     10.09      0.00
  60                   0.00    209.02     90.57      0.00
  601                  0.00    302.52    131.08      0.00
  61                   0.00    302.52    131.08      0.00
  101                248.83    145.80     44.97      0.00
  103                174.49    145.76     44.53      0.00
  105                177.33    147.09     51.39      0.00
  107                 71.58    147.08     54.20      0.00
  109                303.13    145.76     54.36      0.00
  111                185.94    146.33     59.07      0.00
  113                 26.21    146.36     62.55      0.00
  115                 68.25    147.15     57.70      0.00
  117                154.20    150.27     59.22      0.00
  119                230.73    157.75     67.49      0.00
  120                  0.00    155.33     67.31      0.00
  121                 54.54    161.20     70.71      0.00
  123                  0.00    165.65     67.01      0.00
  125                 59.74    160.61     64.83      0.00
  127                 23.13    158.90     44.59      0.00
  129                  0.00    158.89     46.75      0.00
  131                 56.00    158.87     66.24      0.00
  139                  7.72    153.72     53.17      0.00
  141                 12.90    150.04     63.28      0.00
  143                  8.12    140.27     62.73      0.00
  145                 36.20    151.14     65.05      0.00
  147                 11.20    151.97     57.83      0.00
  149                 35.46    152.33     59.07      0.00
  151                189.27    155.82     53.00      0.00
  153                 57.86    155.92     38.87      0.00
  157                 67.84    155.30     61.61      0.00
  159                 54.13    151.93     63.23      0.00
  161                 20.70    149.64     63.11      0.00
  163                 12.34    149.18     62.47      0.00
  164                  0.00    149.18     62.47      0.00
  166                  3.41    149.18     65.51      0.00
  167                 19.07    147.30     65.99      0.00
  169                  0.00    147.30     65.99      0.00
  171                 51.54    146.20     65.08      0.00
  173                  0.00    146.18     65.07      0.00
  177                 76.20    145.86     59.74      0.00
  179                  0.00    145.85     59.73      0.00
  181                  0.00    145.88     59.74      0.00
  183                  0.00    145.85     58.43      0.00
  184                  0.00    144.63     55.74      0.00
  185                 33.60    145.23     55.99      0.00
  187                  0.00    145.96     57.83      0.00
  189                141.38    146.26     61.64      0.00
  191                107.29    146.25     52.54      0.00
  193                 93.42    146.35     55.61      0.00
  195                  0.00    146.42     56.73      0.00
  197                 22.32    146.27     53.41      0.00
  199                156.31    140.92     61.93      0.00
  201                 58.44    140.17     60.69      0.00
  203               4459.30    140.01     59.80      0.00
  204                  0.00    145.70     54.03      0.00
  205                 85.62    140.89     51.95      0.00
  206                  0.00    139.95     60.21      0.00
  207                 90.90    140.17     56.83      0.00
  208                  0.00    139.70     53.60      0.00
  209                  1.14    139.27     61.21      0.00
  211                 11.36    139.13     57.25      0.00
  213                 18.26    139.06     57.22      0.00
  215                120.77    138.88     57.14      0.00
  217                 31.73    138.86     57.57      0.00
  219                 54.13    138.85     58.43      0.00
  225                 29.87    138.85     56.70      0.00
  229                 84.08    138.96     55.66      0.00
  231                 21.59    138.96     58.04      0.00
  237                 20.45    139.05     54.19      0.00
  239                 58.44    139.05     54.62      0.00
  241                  0.00    139.05     54.62      0.00
  243                  5.69    139.05     54.18      0.00
  247                 92.20    139.05     52.45      0.00
  249                  0.00    139.05     52.45      0.00
  251                 31.65    139.06     47.26      0.00
  253                 71.42    139.14     44.69      0.00
  255                 52.91    139.19     48.61      0.00
  257                  0.00    152.23     58.59      0.00
  259                  0.00    151.79     54.94      0.00
  261                  0.00    150.22     65.09      0.00
  263                  0.00    150.06     65.02      0.00
  265                  0.00    147.90     64.08      0.00
  267                  0.00    146.36     54.32      0.00
  269                  0.00    146.65     63.54      0.00
  271                  0.00    145.97     60.65      0.00
  273                  0.00    140.89     57.58      0.00
  275                  0.00    140.18     56.41      0.00
  River           -13151.72    220.00      0.00      0.00  Reservoir
  Lake                 0.00    167.00      0.00      0.00  Reservoir
  1                  467.20    145.11      5.72      0.00  Tank
  2                 -296.28    139.79     10.09      0.00  Tank
  3                 2277.84    158.14     12.63      0.00  Tank
   
   
  Link Results at 0:10:00 hrs:
  ----------------------------------------------
                       Flow  Velocity  Headloss
  Link                  gpm       fps   /1000ft
  ----------------------------------------------
  20               -2277.84      0.09      0.00
  40                -467.20      0.02      0.00
  50                 296.28      0.01      0.00
  60               13151.72      9.33      8.92
  101                  0.00      0.00      0.00
  103                171.70      0.27      0.02
  105               -420.54      1.19      0.51
  107                 36.33      0.10      0.01
  109                 -2.79      0.00      0.00
  111               -305.92      0.87      0.28
  112                503.74      1.43      0.71
  113                -65.55      0.19      0.02
  114                126.89      0.81      0.40
  115                -35.25      0.22      0.04
  116                 35.12      0.10      0.01
  117                634.20      1.80      1.09
  119               -734.13      2.08      1.43
  120               1155.02      3.28      3.31
  121               1035.92      2.94      2.71
  122                367.51      2.35      2.86
  123               9808.21      4.45      1.72
  125              13151.72      5.97      2.97
  129               2921.48      2.07      0.63
  131               2650.13      1.88      0.53
  133              -2277.84      2.33      0.97
  135                349.15      0.25      0.01
  137                 56.00      0.09      0.00
  145                293.15      1.87      1.88
  147                285.44      1.82      1.79
  149               -594.99      3.80      6.98
  151               -586.87      3.75      6.81
  153                322.46      0.91      0.31
  155                358.65      1.02      0.38
  159               -369.86      1.05      0.40
  161               -405.32      2.59      3.43
  163               -153.75      0.44      0.08
  169                211.61      1.35      1.03
  171                440.84      1.25      0.56
  173               7981.61      3.62      1.18
  175               7913.77      3.59      1.16
  177               7859.64      3.57      1.14
  179               7589.06      3.44      1.07
  180                  3.41      0.01      0.00
  181                  3.41      0.01      0.00
  183               7368.07      3.34      1.02
  185                -19.07      0.12      0.01
  186                347.09      2.22      2.57
  187               6742.09      3.06      0.86
  189               4713.69      2.14      0.44
  191              -1976.86      1.40      0.31
  193              -1663.77      1.18      0.22
  195                460.18      1.31      0.60
  197                383.98      1.09      0.43
  199                -83.22      0.24      0.03
  201               -467.20      1.33      0.62
  202                546.27      3.49      5.96
  203                232.78      1.49      1.23
  204                546.27      1.55      0.83
  205                347.09      0.98      0.36
  207                316.00      0.90      0.30
  209                158.46      1.01      0.60
  211                606.91      1.72      1.01
  213                188.63      0.54      0.12
  215                156.01      0.44      0.08
  217               -240.82      0.68      0.18
  219               -249.88      0.71      0.19
  221                249.88      1.59      1.40
  223                 55.10      0.16      0.01
  225                 77.43      0.22      0.02
  229               4713.69      3.34      1.32
  231               4447.24      3.15      1.18
  233               4459.30      3.16      1.38
  235                110.14      0.31      0.04
  237                458.66      1.30      0.60
  238                409.39      1.16      0.48
  239                 41.63      0.12      0.01
  240                409.39      1.16      0.48
  241                409.39      1.16      0.48
  243                408.25      0.65      0.12
  245                295.01      0.47      0.07
  247                236.49      0.38      0.04
  249                115.73      0.18      0.01
  251                 54.13      0.11      0.01
  257                 29.87      0.08      0.00
  261                 40.25      0.26      0.05
  263                 21.59      0.06      0.00
  269                101.89      0.29      0.04
  271                 65.41      0.42      0.12
  273                 16.03      0.05      0.00
  275                -12.40      0.04      0.00
  277                  5.69      0.02      0.00
  281                -18.08      0.07      0.00
  283                -30.02      0.09      0.00
  285                 -3.70      0.01      0.00
  287               -106.58      0.44      0.10
  289                296.28      1.21      0.65
  291                 71.42      0.29      0.05
  293                 65.37      0.42      0.12
  295                -33.72      0.10      0.00
  297                486.61      3.11      4.81
  299                233.78      1.49      1.24
  301                233.78      1.49      1.24
  303                252.82      1.61      1.43
  305                147.60      0.42      0.07
  307                400.42      1.14      0.47
  309                205.24      1.31      0.97
  311                -49.23      0.14      0.01
  313                459.82      1.30      0.60
  315              -2123.95      1.51      0.35
  317                112.13      0.72      0.32
  319                 -1.99      0.01      0.00
  321               7573.31      3.44      1.07
  323                -70.50      0.20      0.02
  325                147.09      0.94      0.52
  329              13151.72      5.97      3.01
  330                  0.00      0.00      0.00
  333                 -0.00      0.00      0.00
  10                   0.00      0.00      0.00  Pump
  335              13151.72      0.00    -93.50  Pump
   
   
  Node Results at 0:15:00 hrs:
  --------------------------------------------------------
                     Demand      Head  Pressure  Chemical
  Node                  gpm        ft       psi      mg/L
  --------------------------------------------------------
  10                   0.00    145.84     -0.50      0.00
  15                 586.87    129.09     42.07      0.00
  20                   0.00    158.22     12.66      0.00
  35                1663.77    145.91     57.81      0.00
  40                   0.00    145.17      5.75      0.00
  50                   0.00    139.69     10.05      0.00
  60                   0.00    209.02     90.57      0.00
  601                  0.00    302.54    131.09      0.00
  61                   0.00    302.54    131.09      0.00
  101                248.83    145.84     44.99      0.00
  103                174.49    145.81     44.55      0.00
  105                177.33    147.13     51.40      0.00
  107                 71.58    147.13     54.22      0.00
  109                303.13    145.81     54.38      0.00
  111                185.94    146.37     59.09      0.00
  113                 26.21    146.40     62.57      0.00
  115                 68.25    147.20     57.71      0.00
  117                154.20    150.32     59.24      0.00
  119                230.73    157.80     67.51      0.00
  120                  0.00    155.38     67.33      0.00
  121                 54.54    161.25     70.74      0.00
  123                  0.00    165.70     67.03      0.00
  125                 59.74    160.67     64.85      0.00
  127                 23.13    158.97     44.62      0.00
  129                  0.00    158.96     46.78      0.00
  131                 56.00    158.94     66.27      0.00
  139                  7.72    153.78     53.20      0.00
  141                 12.90    150.10     63.31      0.00
  143                  8.12    140.33     62.75      0.00
  145                 36.20    151.20     65.08      0.00
  147                 11.20    152.03     57.86      0.00
  149                 35.46    152.38     59.09      0.00
  151                189.27    155.88     53.03      0.00
  153                 57.86    155.97     38.90      0.00
  157                 67.84    155.35     61.64      0.00
  159                 54.13    151.97     63.25      0.00
  161                 20.70    149.68     63.12      0.00
  163                 12.34    149.22     62.49      0.00
  164                  0.00    149.22     62.49      0.00
  166                  3.41    149.22     65.52      0.00
  167                 19.07    147.34     66.01      0.00
  169                  0.00    147.34     66.01      0.00
  171                 51.54    146.24     65.10      0.00
  173                  0.00    146.22     65.09      0.00
  177                 76.20    145.90     59.75      0.00
  179                  0.00    145.89     59.75      0.00
  181                  0.00    145.92     59.76      0.00
  183                  0.00    145.90     58.45      0.00
  184                  0.00    144.67     55.75      0.00
  185                 33.60    145.27     56.01      0.00
  187                  0.00    146.00     57.84      0.00
  189                141.38    146.30     61.66      0.00
  191                107.29    146.30     52.56      0.00
  193                 93.42    146.39     55.63      0.00
  195                  0.00    146.46     56.74      0.00
  197                 22.32    146.31     53.43      0.00
  199                156.31    140.94     61.93      0.00
  201                 58.44    140.19     60.70      0.00
  203               4459.30    140.02     59.81      0.00
  204                  0.00    145.74     54.05      0.00
  205                 85.62    140.91     51.96      0.00
  206                  0.00    139.95     60.21      0.00
  207                 90.90    140.18     56.84      0.00
  208                  0.00    139.69     53.60      0.00
  209                  1.14    139.24     61.20      0.00
  211                 11.36    139.09     57.24      0.00
  213                 18.26    139.03     57.21      0.00
  215                120.77    138.84     57.13      0.00
  217                 31.73    138.82     57.55      0.00
  219                 54.13    138.81     58.41      0.00
  225                 29.87    138.82     56.68      0.00
  229                 84.08    138.92     55.64      0.00
  231                 21.59    138.91     58.02      0.00
  237                 20.45    139.01     54.16      0.00
  239                 58.44    139.00     54.60      0.00
  241                  0.00    139.00     54.60      0.00
  243                  5.69    139.00     54.16      0.00
  247                 92.20    139.00     52.43      0.00
  249                  0.00    139.00     52.43      0.00
  251                 31.65    139.01     47.23      0.00
  253                 71.42    139.07     44.66      0.00
  255                 52.91    139.13     48.58      0.00
  257                  0.00    152.28     58.62      0.00
  259                  0.00    151.84     54.96      0.00
  261                  0.00    150.27     65.11      0.00
  263                  0.00    150.11     65.04      0.00
  265                  0.00    147.94     64.10      0.00
  267                  0.00    146.40     54.34      0.00
  269                  0.00    146.69     63.56      0.00
  271                  0.00    146.01     60.67      0.00
  273                  0.00    140.91     57.59      0.00
  275                  0.00    140.19     56.41      0.00
  River           -13149.86    220.00      0.00      0.00  Reservoir
  Lake                 0.00    167.00      0.00      0.00  Reservoir
  1                  462.52    145.17      5.75      0.00  Tank
  2                 -286.09    139.69     10.05      0.00  Tank
  3                 2270.47    158.22     12.66      0.00  Tank
   
   
  Link Results at 0:15:00 hrs:
  ----------------------------------------------
                       Flow  Velocity  Headloss
  Link                  gpm       fps   /1000ft
  ----------------------------------------------
  20               -2270.47      0.09      0.00
  40                -462.52      0.02      0.00
  50                 286.09      0.01      0.00
  60               13149.86      9.33      8.92
  101                  0.00      0.00      0.00
  103                171.88      0.27      0.02
  105               -420.71      1.19      0.51
  107                 36.44      0.10      0.01
  109                 -2.61      0.00      0.00
  111               -305.75      0.87      0.28
  112                504.13      1.43      0.71
  113                -65.25      0.19      0.02
  114                127.01      0.81      0.40
  115                -35.14      0.22      0.04
  116                 35.54      0.10      0.01
  117                634.49      1.80      1.09
  119               -734.53      2.08      1.43
  120               1155.53      3.28      3.31
  121               1036.39      2.94      2.71
  122                367.69      2.35      2.86
  123               9813.29      4.45      1.73
  125              13149.86      5.97      2.97
  129               2914.35      2.07      0.63
  131               2642.91      1.87      0.52
  133              -2270.47      2.32      0.96
  135                349.30      0.25      0.01
  137                 56.00      0.09      0.00
  145                293.30      1.87      1.88
  147                285.58      1.82      1.79
  149               -594.99      3.80      6.98
  151               -586.87      3.75      6.81
  153                322.31      0.91      0.31
  155                358.51      1.02      0.38
  159               -369.71      1.05      0.40
  161               -405.17      2.59      3.43
  163               -153.84      0.44      0.08
  169                211.70      1.35      1.03
  171                440.60      1.25      0.56
  173               7986.43      3.62      1.18
  175               7918.59      3.59      1.16
  177               7864.46      3.57      1.15
  179               7593.80      3.45      1.07
  180                  3.41      0.01      0.00
  181                  3.41      0.01      0.00
  183               7372.82      3.35      1.02
  185                -19.07      0.12      0.01
  186                347.70      2.22      2.58
  187               6746.89      3.06      0.86
  189               4722.66      2.14      0.45
  191              -1972.70      1.40      0.30
  193              -1663.77      1.18      0.22
  195                456.09      1.29      0.59
  197                379.89      1.08      0.42
  199                -82.63      0.23      0.02
  201               -462.52      1.31      0.61
  202                547.49      3.49      5.99
  203                233.39      1.49      1.23
  204                547.49      1.55      0.83
  205                347.70      0.99      0.36
  207                316.02      0.90      0.30
  209                158.66      1.01      0.60
  211                606.85      1.72      1.01
  213                189.04      0.54      0.12
  215                156.37      0.44      0.08
  217               -240.96      0.68      0.18
  219               -249.96      0.71      0.19
  221                249.96      1.60      1.40
  223                 55.37      0.16      0.01
  225                 77.70      0.22      0.02
  229               4722.66      3.35      1.32
  231               4454.92      3.16      1.19
  233               4459.30      3.16      1.38
  235                111.43      0.32      0.04
  237                460.93      1.31      0.60
  238                419.58      1.19      0.51
  239                 49.55      0.14      0.01
  240                419.58      1.19      0.51
  241                419.58      1.19      0.51
  243                418.44      0.67      0.12
  245                296.58      0.47      0.07
  247                236.49      0.38      0.04
  249                115.73      0.18      0.01
  251                 54.13      0.11      0.01
  257                 29.87      0.08      0.00
  261                 41.83      0.27      0.05
  263                 21.59      0.06      0.00
  269                110.50      0.31      0.04
  271                 63.84      0.41      0.11
  273                 26.21      0.07      0.00
  275                 -8.58      0.02      0.00
  277                  5.69      0.02      0.00
  281                -14.26      0.06      0.00
  283                -23.65      0.07      0.00
  285                 -6.31      0.02      0.00
  287               -100.15      0.41      0.09
  289                286.09      1.17      0.61
  291                 71.42      0.29      0.05
  293                 61.61      0.39      0.10
  295                -29.96      0.08      0.00
  297                486.83      3.11      4.82
  299                233.89      1.49      1.24
  301                233.89      1.49      1.24
  303                252.94      1.61      1.43
  305                147.66      0.42      0.07
  307                400.60      1.14      0.47
  309                205.24      1.31      0.97
  311                -48.87      0.14      0.01
  313                459.68      1.30      0.60
  315              -2119.86      1.50      0.35
  317                112.37      0.72      0.32
  319                 -0.94      0.00      0.00
  321               7578.06      3.44      1.07
  323                -62.82      0.18      0.02
  325                147.17      0.94      0.53
  329              13149.86      5.97      3.01
  330                  0.00      0.00      0.00
  333                 -0.00      0.00      0.00
  10                   0.00      0.00      0.00  Pump
  335              13149.86      0.00    -93.51  Pump
   
   
  Node Results at 0:20:00 hrs:
  --------------------------------------------------------
                     Demand      Head  Pressure  Chemical
  Node                  gpm        ft       psi      mg/L
  --------------------------------------------------------
  10                   0.00    145.88     -0.48      0.00
  15                 586.87    129.15     42.10      0.00
  20                   0.00    158.29     12.69      0.00
  35                1663.77    145.95     57.83      0.00
  40                   0.00    145.22      5.77      0.00
  50                   0.00    139.59     10.00      0.00
  60                   0.00    209.03     90.57      0.00
  601                  0.00    302.56    131.10      0.00
  61                   0.00    302.56    131.10      0.00
  101                248.83    145.88     45.01      0.00
  103                174.49    145.85     44.56      0.00
  105                177.33    147.18     51.42      0.00
  107                 71.58    147.17     54.24      0.00
  109                303.13    145.85     54.40      0.00
  111                185.94    146.41     59.11      0.00
  113                 26.21    146.44     62.59      0.00
  115                 68.25    147.24     57.73      0.00
  117                154.20    150.37     59.26      0.00
  119                230.73    157.85     67.53      0.00
  120                  0.00    155.43     67.35      0.00
  121                 54.54    161.31     70.76      0.00
  123                  0.00    165.76     67.06      0.00
  125                 59.74    160.73     64.88      0.00
  127                 23.13    159.04     44.65      0.00
  129                  0.00    159.03     46.81      0.00
  131                 56.00    159.01     66.30      0.00
  139                  7.72    153.84     53.23      0.00
  141                 12.90    150.16     63.33      0.00
  143                  8.12    140.39     62.78      0.00
  145                 36.20    151.25     65.10      0.00
  147                 11.20    152.09     57.88      0.00
  149                 35.46    152.44     59.12      0.00
  151                189.27    155.93     53.05      0.00
  153                 57.86    156.03     38.92      0.00
  157                 67.84    155.40     61.66      0.00
  159                 54.13    152.02     63.27      0.00
  161                 20.70    149.73     63.14      0.00
  163                 12.34    149.26     62.51      0.00
  164                  0.00    149.26     62.51      0.00
  166                  3.41    149.26     65.54      0.00
  167                 19.07    147.38     66.03      0.00
  169                  0.00    147.38     66.03      0.00
  171                 51.54    146.28     65.12      0.00
  173                  0.00    146.26     65.11      0.00
  177                 76.20    145.94     59.77      0.00
  179                  0.00    145.93     59.77      0.00
  181                  0.00    145.96     59.78      0.00
  183                  0.00    145.94     58.47      0.00
  184                  0.00    144.70     55.77      0.00
  185                 33.60    145.30     56.03      0.00
  187                  0.00    146.04     57.86      0.00
  189                141.38    146.34     61.68      0.00
  191                107.29    146.34     52.58      0.00
  193                 93.42    146.43     55.65      0.00
  195                  0.00    146.50     56.76      0.00
  197                 22.32    146.35     53.45      0.00
  199                156.31    140.96     61.94      0.00
  201                 58.44    140.21     60.71      0.00
  203               4459.30    140.04     59.81      0.00
  204                  0.00    145.78     54.07      0.00
  205                 85.62    140.93     51.96      0.00
  206                  0.00    139.96     60.21      0.00
  207                 90.90    140.20     56.85      0.00
  208                  0.00    139.69     53.59      0.00
  209                  1.14    139.22     61.19      0.00
  211                 11.36    139.06     57.22      0.00
  213                 18.26    138.99     57.19      0.00
  215                120.77    138.81     57.11      0.00
  217                 31.73    138.79     57.54      0.00
  219                 54.13    138.78     58.40      0.00
  225                 29.87    138.78     56.67      0.00
  229                 84.08    138.87     55.62      0.00
  231                 21.59    138.87     58.01      0.00
  237                 20.45    138.96     54.14      0.00
  239                 58.44    138.96     54.58      0.00
  241                  0.00    138.96     54.58      0.00
  243                  5.69    138.96     54.14      0.00
  247                 92.20    138.96     52.41      0.00
  249                  0.00    138.96     52.41      0.00
  251                 31.65    138.96     47.21      0.00
  253                 71.42    139.01     44.64      0.00
  255                 52.91    139.06     48.56      0.00
  257                  0.00    152.33     58.64      0.00
  259                  0.00    151.89     54.98      0.00
  261                  0.00    150.32     65.13      0.00
  263                  0.00    150.16     65.06      0.00
  265                  0.00    147.98     64.12      0.00
  267                  0.00    146.44     54.35      0.00
  269                  0.00    146.73     63.58      0.00
  271                  0.00    146.05     60.68      0.00
  273                  0.00    140.93     57.60      0.00
  275                  0.00    140.21     56.42      0.00
  River           -13148.00    220.00      0.00      0.00  Reservoir
  Lake                 0.00    167.00      0.00      0.00  Reservoir
  1                  458.04    145.22      5.77      0.00  Tank
  2                 -276.18    139.59     10.00      0.00  Tank
  3                 2263.18    158.29     12.69      0.00  Tank
   
   
  Link Results at 0:20:00 hrs:
  ----------------------------------------------
                       Flow  Velocity  Headloss
  Link                  gpm       fps   /1000ft
  ----------------------------------------------
  20               -2263.18      0.09      0.00
  40                -458.04      0.02      0.00
  50                 276.18      0.01      0.00
  60               13148.00      9.32      8.91
  101                  0.00      0.00      0.00
  103                172.05      0.27      0.02
  105               -420.89      1.19      0.51
  107                 36.55      0.10      0.01
  109                 -2.44      0.00      0.00
  111               -305.57      0.87      0.28
  112                504.52      1.43      0.71
  113                -64.96      0.18      0.02
  114                127.13      0.81      0.40
  115                -35.02      0.22      0.04
  116                 35.96      0.10      0.01
  117                634.78      1.80      1.09
  119               -734.92      2.08      1.43
  120               1156.04      3.28      3.32
  121               1036.85      2.94      2.71
  122                367.86      2.35      2.87
  123               9818.31      4.46      1.73
  125              13148.00      5.97      2.97
  129               2907.30      2.06      0.63
  131               2635.76      1.87      0.52
  133              -2263.18      2.31      0.96
  135                349.45      0.25      0.01
  137                 56.00      0.09      0.00
  145                293.45      1.87      1.89
  147                285.73      1.82      1.80
  149               -594.99      3.80      6.98
  151               -586.87      3.75      6.81
  153                322.17      0.91      0.31
  155                358.36      1.02      0.38
  159               -369.56      1.05      0.40
  161               -405.02      2.59      3.43
  163               -153.94      0.44      0.08
  169                211.80      1.35      1.03
  171                440.36      1.25      0.55
  173               7991.18      3.63      1.18
  175               7923.34      3.60      1.16
  177               7869.21      3.57      1.15
  179               7598.48      3.45      1.07
  180                  3.41      0.01      0.00
  181                  3.41      0.01      0.00
  183               7377.49      3.35      1.02
  185                -19.07      0.12      0.01
  186                348.30      2.22      2.59
  187               6751.62      3.06      0.86
  189               4731.38      2.15      0.45
  191              -1968.70      1.40      0.30
  193              -1663.77      1.18      0.22
  195                452.17      1.28      0.58
  197                375.97      1.07      0.41
  199                -82.07      0.23      0.02
  201               -458.04      1.30      0.60
  202                548.68      3.50      6.01
  203                233.98      1.49      1.24
  204                548.68      1.56      0.83
  205                348.30      0.99      0.36
  207                316.05      0.90      0.30
  209                158.86      1.01      0.61
  211                606.80      1.72      1.00
  213                189.44      0.54      0.12
  215                156.72      0.44      0.08
  217               -241.09      0.68      0.18
  219               -250.04      0.71      0.19
  221                250.04      1.60      1.40
  223                 55.64      0.16      0.01
  225                 77.96      0.22      0.02
  229               4731.38      3.36      1.33
  231               4462.31      3.16      1.19
  233               4459.30      3.16      1.38
  235                112.76      0.32      0.04
  237                463.24      1.31      0.61
  238                429.49      1.22      0.53
  239                 57.16      0.16      0.01
  240                429.49      1.22      0.53
  241                429.49      1.22      0.53
  243                428.35      0.68      0.13
  245                298.19      0.48      0.07
  247                236.49      0.38      0.04
  249                115.73      0.18      0.01
  251                 54.13      0.11      0.01
  257                 29.87      0.08      0.00
  261                 43.43      0.28      0.05
  263                 21.59      0.06      0.00
  269                118.81      0.34      0.05
  271                 62.23      0.40      0.11
  273                 36.13      0.10      0.01
  275                 -4.85      0.01      0.00
  277                  5.69      0.02      0.00
  281                -10.53      0.04      0.00
  283                -17.47      0.05      0.00
  285                 -8.82      0.03      0.00
  287                -93.91      0.38      0.08
  289                276.18      1.13      0.57
  291                 71.42      0.29      0.05
  293                 57.94      0.37      0.09
  295                -26.29      0.07      0.00
  297                487.05      3.11      4.82
  299                234.00      1.49      1.24
  301                234.00      1.49      1.24
  303                253.05      1.62      1.43
  305                147.73      0.42      0.07
  307                400.78      1.14      0.47
  309                205.24      1.31      0.97
  311                -48.51      0.14      0.01
  313                459.56      1.30      0.60
  315              -2115.94      1.50      0.35
  317                112.58      0.72      0.32
  319                  0.18      0.00      0.00
  321               7582.73      3.44      1.07
  323                -55.43      0.16      0.01
  325                147.24      0.94      0.53
  329              13148.00      5.97      3.01
  330                  0.00      0.00      0.00
  333                 -0.00      0.00      0.00
  10                   0.00      0.00      0.00  Pump
  335              13148.01      0.00    -93.53  Pump
   
   
  Node Results at 0:25:00 hrs:
  --------------------------------------------------------
                     Demand      Head  Pressure  Chemical
  Node                  gpm        ft       psi      mg/L
  --------------------------------------------------------
  10                   0.00    145.93     -0.47      0.00
  15                 586.87    129.21     42.12      0.00
  20                   0.00    158.36     12.72      0.00
  35                1663.77    146.00     57.84      0.00
  40                   0.00    145.28      5.80      0.00
  50                   0.00    139.50      9.96      0.00
  60                   0.00    209.03     90.57      0.00
  601                  0.00    302.58    131.11      0.00
  61                   0.00    302.58    131.11      0.00
  101                248.83    145.93     45.03      0.00
  103                174.49    145.89     44.58      0.00
  105                177.33    147.22     51.44      0.00
  107                 71.58    147.21     54.26      0.00
  109                303.13    145.89     54.42      0.00
  111                185.94    146.46     59.13      0.00
  113                 26.21    146.48     62.60      0.00
  115                 68.25    147.29     57.75      0.00
  117                154.20    150.41     59.28      0.00
  119                230.73    157.91     67.55      0.00
  120                  0.00    155.48     67.37      0.00
  121                 54.54    161.37     70.79      0.00
  123                  0.00    165.82     67.08      0.00
  125                 59.74    160.79     64.90      0.00
  127                 23.13    159.11     44.68      0.00
  129                  0.00    159.09     46.84      0.00
  131                 56.00    159.08     66.33      0.00
  139                  7.72    153.90     53.25      0.00
  141                 12.90    150.22     63.36      0.00
  143                  8.12    140.44     62.80      0.00
  145                 36.20    151.31     65.13      0.00
  147                 11.20    152.14     57.91      0.00
  149                 35.46    152.50     59.14      0.00
  151                189.27    155.99     53.07      0.00
  153                 57.86    156.08     38.95      0.00
  157                 67.84    155.45     61.68      0.00
  159                 54.13    152.07     63.29      0.00
  161                 20.70    149.77     63.16      0.00
  163                 12.34    149.31     62.53      0.00
  164                  0.00    149.31     62.53      0.00
  166                  3.41    149.31     65.56      0.00
  167                 19.07    147.42     66.04      0.00
  169                  0.00    147.42     66.04      0.00
  171                 51.54    146.32     65.13      0.00
  173                  0.00    146.30     65.13      0.00
  177                 76.20    145.99     59.79      0.00
  179                  0.00    145.97     59.78      0.00
  181                  0.00    146.00     59.80      0.00
  183                  0.00    145.98     58.49      0.00
  184                  0.00    144.74     55.78      0.00
  185                 33.60    145.34     56.04      0.00
  187                  0.00    146.08     57.88      0.00
  189                141.38    146.38     61.69      0.00
  191                107.29    146.38     52.59      0.00
  193                 93.42    146.47     55.67      0.00
  195                  0.00    146.54     56.78      0.00
  197                 22.32    146.39     53.47      0.00
  199                156.31    140.98     61.95      0.00
  201                 58.44    140.23     60.72      0.00
  203               4459.30    140.06     59.82      0.00
  204                  0.00    145.82     54.08      0.00
  205                 85.62    140.95     51.97      0.00
  206                  0.00    139.96     60.21      0.00
[...]
  219                 64.46    141.08     59.40    222.46
  225                 35.57    141.08     57.66    217.62
  229                100.12    141.04     56.56      0.00
  231                 25.71    141.03     58.94    196.76
  237                 24.35    141.10     55.07      0.00
  239                 69.59    141.05     55.48      0.00
  241                  0.00    141.05     55.48      0.00
  243                  6.77    141.05     55.05      0.00
  247                109.79    141.04     53.31     68.23
  249                  0.00    141.04     53.31      0.00
  251                 37.69    141.04     48.11    191.57
  253                 85.05    140.99     45.49    181.14
  255                 63.01    141.06     49.42     21.60
  257                  0.00    153.65     59.21      0.00
  259                  0.00    153.24     55.57      0.00
  261                  0.00    151.78     65.77      0.00
  263                  0.00    151.62     65.70      0.00
  265                  0.00    150.82     65.35      0.00
  267                  0.00    149.25     55.57      0.00
  269                  0.00    149.72     64.87      0.00
  271                  0.00    149.37     62.12      0.00
  273                  0.00    144.66     59.22      0.00
  275                  0.00    144.10     58.10      0.00
  River           -13170.49    220.00      0.00      0.00  Reservoir
  Lake                 0.00    167.00      0.00      0.00  Reservoir
  1                  -12.53    149.31      7.54      0.00  Tank
  2                 -205.04    141.36     10.77     21.60  Tank
  3                 1407.80    160.34     13.58      0.00  Tank
   
   
  Link Results at 23:55:00 hrs:
  ----------------------------------------------
                       Flow  Velocity  Headloss
  Link                  gpm       fps   /1000ft
  ----------------------------------------------
  20               -1407.80      0.06      0.00
  40                  12.53      0.00      0.00
  50                 205.04      0.01      0.00
  60               13170.49      9.34      8.94
  101                  0.00      0.00      0.00
  103                119.11      0.19      0.01
  105               -415.43      1.18      0.50
  107                 -8.95      0.03      0.00
  109                -88.68      0.14      0.01
  111               -449.66      1.28      0.58
  112                404.17      1.15      0.47
  113               -179.43      0.51      0.11
  114                 84.06      0.54      0.19
  115                -94.18      0.60      0.23
  116               -126.58      0.36      0.06
  117                617.66      1.75      1.04
  119               -663.69      1.88      1.19
  120               1121.27      3.18      3.13
  121                996.53      2.83      2.52
  122                343.71      2.19      2.53
  123               8922.08      4.05      1.45
  125              11322.69      5.14      2.25
  129               1991.96      1.41      0.31
  131               1729.45      1.23      0.24
  133              -1407.80      1.44      0.40
  135                294.10      0.21      0.01
  137                 66.69      0.11      0.00
  145                227.41      1.45      1.18
  147                218.23      1.39      1.09
  149               -365.58      2.33      2.83
  151               -355.91      2.27      2.70
  153                162.72      0.46      0.09
  155                205.83      0.58      0.14
  159               -219.16      0.62      0.15
  161               -261.39      1.67      1.52
  163               -122.47      0.35      0.05
  169                191.37      1.22      0.85
  171                364.31      1.03      0.39
  173               7161.73      3.25      0.96
  175               7080.94      3.21      0.94
  177               7016.48      3.18      0.93
  179               6743.19      3.06      0.86
  180                  4.06      0.01      0.00
  181                  4.06      0.01      0.00
  183               6516.73      2.96      0.81
  185                -22.71      0.14      0.02
  186                259.38      1.66      1.50
  187               5898.93      2.68      0.67
  189               4444.88      2.02      0.40
  191              -1392.67      0.99      0.16
  193              -1175.00      0.83      0.12
  195                320.60      0.91      0.31
  197                229.85      0.65      0.17
  199                242.39      0.69      0.18
  201                 12.53      0.04      0.00
  202                502.86      3.21      5.11
  203                283.50      1.81      1.77
  204                502.86      1.43      0.71
  205                259.38      0.74      0.21
  207                 41.11      0.12      0.01
  209                205.11      1.31      0.97
  211                595.09      1.69      0.97
  213                 54.26      0.15      0.01
  215                -77.59      0.22      0.02
  217               -296.11      0.84      0.27
  219               -248.64      0.71      0.19
  221                248.64      1.59      1.39
  223               -114.08      0.32      0.05
  225                -87.50      0.25      0.03
  229               4444.88      3.15      1.18
  231               4066.28      2.88      1.00
  233               3846.50      2.73      1.05
  235                192.47      0.55      0.12
  237                493.95      1.40      0.69
  238                635.30      1.80      1.09
  239                249.60      0.71      0.19
  240                635.30      1.80      1.09
  241                635.30      1.80      1.09
  243                633.95      1.01      0.27
  245                378.75      0.60      0.10
  247                281.63      0.45      0.06
  249                137.81      0.22      0.02
  251                 64.46      0.13      0.01
  257                 35.57      0.10      0.01
  261                 75.38      0.48      0.15
  263                 25.71      0.07      0.00
  269                241.67      0.69      0.18
  271                 50.45      0.32      0.07
  273                166.87      0.47      0.09
  275                 40.62      0.12      0.01
  277                  6.77      0.02      0.00
  281                 33.85      0.14      0.01
  283                 56.65      0.16      0.01
  285                -41.63      0.12      0.01
  287                -34.31      0.14      0.01
  289                205.04      0.84      0.33
  291                 85.05      0.35      0.06
  293                 22.67      0.14      0.02
  295                 15.02      0.04      0.00
  297                468.45      2.99      4.48
  299                225.23      1.44      1.16
  301                225.23      1.44      1.16
  303                243.22      1.55      1.33
  305                149.21      0.42      0.07
  307                392.44      1.11      0.45
  309                207.71      1.33      0.99
  311               -285.29      0.81      0.25
  313                492.16      1.40      0.68
  315              -1495.60      1.06      0.18
  317                 99.42      0.63      0.25
  319                 93.05      0.26      0.03
  321               6724.44      3.05      0.86
  323                150.19      0.43      0.08
  325                102.93      0.66      0.27
  329              13170.49      5.98      3.02
  330                  0.00      0.00      0.00
  333                 -0.00      0.00      0.00
  10                   0.00      0.00      0.00  Pump
  335              13170.49      0.00    -93.33  Pump
   
   
  Node Results at 24:00:00 hrs:
  --------------------------------------------------------
                     Demand      Head  Pressure  Chemical
  Node                  gpm        ft       psi      mg/L
  --------------------------------------------------------
  10                   0.00    149.06      0.89      0.00
  15                 586.87    131.62     43.17      0.00
  20                   0.00    160.39     13.60      0.00
  35                1663.77    149.33     59.29      0.00
  40                   0.00    149.31      7.54      0.00
  50                   0.00    141.29     10.74     21.60
  60                   0.00    209.15     90.63      0.00
  601                  0.00    303.42    131.47      0.00
  61                   0.00    303.42    131.47      0.00
  101                248.83    149.06     46.39      0.00
  103                174.49    149.03     45.94      0.00
  105                177.33    150.30     52.78      0.00
  107                 71.58    150.30     55.59      0.00
  109                303.13    149.03     55.78      0.00
  111                185.94    149.63     60.50      0.00
  113                 26.21    149.67     63.98      0.00
  115                 68.25    150.39     59.10      0.00
  117                154.20    153.35     60.56      0.00
  119                230.73    160.52     68.69      0.00
  120                  0.00    158.20     68.55      0.00
  121                 54.54    163.82     71.85      0.00
  123                  0.00    168.21     68.12      0.00
  125                 59.74    163.17     65.93      0.00
  127                 23.13    161.26     45.61      0.00
  129                  0.00    161.25     47.77      0.00
  131                 56.00    161.23     67.26      0.00
  139                  7.72    156.21     54.25      0.00
  141                 12.90    152.63     64.40      0.00
  143                  8.12    142.86     63.85      0.00
  145                 36.20    153.75     66.19      0.00
  147                 11.20    154.61     58.97      0.00
  149                 35.46    154.97     60.21      0.00
  151                189.27    158.53     54.18      0.00
  153                 57.86    158.62     40.05      0.00
  157                 67.84    158.20     62.87      0.00
  159                 54.13    155.00     64.56      0.00
  161                 20.70    152.83     64.49      0.00
  163                 12.34    152.39     63.87      0.00
  164                  0.00    152.39     63.87      0.00
  166                  3.41    152.39     66.90      0.00
  167                 19.07    150.61     67.43      0.00
  169                  0.00    150.61     67.43      0.00
  171                 51.54    149.57     66.54      0.00
  173                  0.00    149.55     66.53      0.00
  177                 76.20    149.33     61.24      0.00
  179                  0.00    149.33     61.24      0.00
  181                  0.00    149.34     61.24      0.00
  183                  0.00    149.33     59.94      0.00
  184                  0.00    147.97     57.18      0.00
  185                 33.60    148.60     57.45      0.00
  187                  0.00    149.31     59.28      0.00
  189                141.38    149.63     63.10      0.00
  191                107.29    149.57     53.98      0.00
  193                 93.42    149.67     57.05      0.00
  195                  0.00    149.73     58.16      0.00
  197                 22.32    149.58     54.85      0.00
  199                156.31    144.04     63.28      0.00
  201                 58.44    143.27     62.03      0.00
  203               4459.30    143.10     61.14      0.00
  204                  0.00    149.06     55.49      0.00
  205                 85.62    144.00     53.30      0.00
  206                  0.00    142.81     61.44      0.00
  207                 90.90    143.17     58.14      0.00
  208                  0.00    142.39     54.76      0.00
  209                  1.14    141.67     62.25      0.00
  211                 11.36    141.42     58.25      0.00
  213                 18.26    141.35     58.21      0.00
  215                120.77    141.16     58.13      0.00
  217                 31.73    141.14     58.56    201.45
  219                 54.13    141.13     59.42    226.05
  225                 29.87    141.14     57.69    223.96
  229                 84.08    141.09     56.59      0.00
  231                 21.59    141.09     58.97    197.33
  237                 20.45    141.13     55.09      0.00
  239                 58.44    141.09     55.50      0.00
  241                  0.00    141.09     55.50      0.00
  243                  5.69    141.09     55.07      0.00
  247                 92.20    141.09     53.33     63.04
  249                  0.00    141.09     53.33      0.00
  251                 31.65    141.09     48.13    190.76
  253                 71.42    141.04     45.52    181.18
  255                 52.91    141.10     49.44     21.60
  257                  0.00    155.23     59.89      0.00
  259                  0.00    154.81     56.25      0.00
  261                  0.00    153.31     66.43      0.00
  263                  0.00    153.15     66.36      0.00
  265                  0.00    151.18     65.51      0.00
  267                  0.00    149.69     55.76      0.00
  269                  0.00    150.00     65.00      0.00
  271                  0.00    149.40     62.14      0.00
  273                  0.00    144.00     58.93      0.00
  275                  0.00    143.27     57.74      0.00
  River           -13065.02    220.00      0.00      0.00  Reservoir
  Lake                 0.00    167.00      0.00      0.00  Reservoir
  1                   76.87    149.31      7.54      0.00  Tank
  2                 -163.03    141.29     10.74     21.60  Tank
  3                 2448.20    160.39     13.60      0.00  Tank
   
   
  Link Results at 24:00:00 hrs:
  ----------------------------------------------
                       Flow  Velocity  Headloss
  Link                  gpm       fps   /1000ft
  ----------------------------------------------
  20               -2448.20      0.10      0.00
  40                 -76.87      0.00      0.00
  50                 163.03      0.01      0.00
  60               13065.02      9.27      8.81
  101                  0.00      0.00      0.00
  103                162.98      0.26      0.02
  105               -411.81      1.17      0.49
  107                 30.72      0.09      0.00
  109                -11.51      0.02      0.00
  111               -314.65      0.89      0.30
  112                484.28      1.37      0.66
  113                -82.14      0.23      0.02
  114                120.55      0.77      0.36
  115                -40.86      0.26      0.05
  116                 12.19      0.03      0.00
  117                619.87      1.76      1.05
  119               -713.94      2.03      1.36
  120               1129.19      3.20      3.17
  121               1012.43      2.87      2.59
  122                358.82      2.29      2.74
  123               9567.68      4.34      1.65
  125              13065.02      5.93      2.93
  129               3083.98      2.19      0.70
  131               2816.29      2.00      0.59
  133              -2448.20      2.50      1.11
  135                344.95      0.24      0.01
  137                 56.00      0.09      0.00
  145                288.95      1.84      1.83
  147                281.23      1.80      1.74
  149               -594.99      3.80      6.98
  151               -586.87      3.75      6.81
  153                326.66      0.93      0.32
  155                362.86      1.03      0.39
  159               -374.06      1.06      0.41
  161               -409.52      2.61      3.50
  163               -150.10      0.43      0.08
  169                207.96      1.33      1.00
  171                448.69      1.27      0.57
  173               7759.06      3.52      1.12
  175               7691.22      3.49      1.10
  177               7637.09      3.47      1.08
  179               7371.85      3.35      1.02
  180                  3.41      0.01      0.00
  181                  3.41      0.01      0.00
  183               7154.71      3.25      0.96
  185                -19.07      0.12      0.01
  186                342.31      2.18      2.51
  187               6549.23      2.97      0.82
  189               4829.95      2.19      0.46
  191              -1667.74      1.18      0.22
  193              -1663.77      1.18      0.22
  195                141.40      0.40      0.07
  197                 65.20      0.18      0.02
  199                -11.68      0.03      0.00
  201                -76.87      0.22      0.02
  202                563.27      3.60      6.31
  203                254.56      1.62      1.45
  204                563.27      1.60      0.88
  205                342.31      0.97      0.35
  207                266.24      0.76      0.22
  209                164.39      1.05      0.64
  211                586.41      1.66      0.94
  213                177.92      0.50      0.10
  215                123.02      0.35      0.05
  217               -241.70      0.69      0.18
  219               -244.55      0.69      0.19
  221                244.55      1.56      1.35
  223                 43.51      0.12      0.01
  225                 65.84      0.19      0.02
  229               4829.95      3.43      1.38
  231               4542.57      3.22      1.23
  233               4459.30      3.16      1.38
  235                131.07      0.37      0.06
  237                494.51      1.40      0.69
  238                542.64      1.54      0.82
  239                139.04      0.39      0.07
  240                542.64      1.54      0.82
  241                542.64      1.54      0.82
  243                541.50      0.86      0.20
  245                320.01      0.51      0.08
  247                236.49      0.38      0.04
  249                115.73      0.18      0.01
  251                 54.13      0.11      0.01
  257                 29.87      0.08      0.00
  261                 65.25      0.42      0.12
  263                 21.59      0.06      0.00
  269                210.14      0.60      0.14
  271                 40.42      0.26      0.05
  273                149.28      0.42      0.07
  275                 37.54      0.11      0.01
  277                  5.69      0.02      0.00
  281                 31.85      0.13      0.01
  283                 53.30      0.15      0.01
  285                -37.56      0.11      0.01
  287                -22.78      0.09      0.01
  289                163.03      0.67      0.21
  291                 71.42      0.29      0.05
  293                 15.92      0.10      0.01
  295                 15.73      0.04      0.00
  297                475.58      3.04      4.61
  299                228.49      1.46      1.19
  301                228.49      1.46      1.19
  303                247.09      1.58      1.37
  305                144.29      0.41      0.07
  307                391.38      1.11      0.45
  309                201.39      1.29      0.94
  311                -78.37      0.22      0.02
  313                448.98      1.27      0.58
  315              -1805.17      1.28      0.26
  317                114.21      0.73      0.33
  319                 16.86      0.05      0.00
  321               7356.10      3.34      1.01
  323                 24.83      0.07      0.00
  325                137.43      0.88      0.46
  329              13065.02      5.93      2.97
  330                  0.00      0.00      0.00
  333                 -0.00      0.00      0.00
  10                   0.00      0.00      0.00  Pump
  335              13065.02      0.00    -94.26  Pump
   
  Analysis ended Wed May 06 17:31:58 2020
