  Page 1                                    Wed May 06 16:45:37 2020

  ******************************************************************
  *                           E P A N E T                          *
  *                   Hydraulic and Water Quality                  *
  *                   Analysis for Pipe Networks                   *
  *                         Version 2.00.12                        *
  ******************************************************************
  
  Analysis begun Wed May 06 16:45:37 2020

   
  Hydraulic Status:
  -----------------------------------------------------------------------
     0:00:00: Balanced after 6 trials
     0:00:00: Reservoir River is emptying
     0:00:00: Reservoir Lake is closed
     0:00:00: Tank 1 is emptying at 13.10 ft
     0:00:00: Tank 2 is emptying at 23.50 ft
     0:00:00: Tank 3 is filling at 29.00 ft
   
     0:05:00: Balanced after 2 trials
   
     0:10:00: Balanced after 2 trials
   
     0:15:00: Balanced after 2 trials
   
     0:20:00: Balanced after 2 trials
   
     0:25:00: Balanced after 2 trials
   
     0:30:00: Balanced after 2 trials
   
     0:35:00: Balanced after 2 trials
   
     0:40:00: Balanced after 2 trials
   
     0:45:00: Balanced after 2 trials
   
     0:50:00: Balanced after 2 trials
   
     0:55:00: Balanced after 2 trials
   
     1:00:00: Pump 10 changed by timer control
     1:00:00: Balanced after 7 trials
     1:00:00: Reservoir Lake is emptying
     1:00:00: Tank 1 is filling at 12.52 ft
     1:00:00: Pump 10 changed from closed to open
   
     1:05:00: Balanced after 2 trials
   
     1:10:00: Balanced after 2 trials
   
     1:15:00: Balanced after 2 trials
   
     1:20:00: Balanced after 2 trials
   
     1:25:00: Balanced after 2 trials
   
     1:30:00: Balanced after 2 trials
   
     1:35:00: Balanced after 2 trials
   
     1:40:00: Balanced after 2 trials
   
     1:45:00: Balanced after 2 trials
   
     1:50:00: Balanced after 2 trials
   
     1:55:00: Balanced after 2 trials
   
     2:00:00: Balanced after 3 trials
     2:00:00: Tank 2 is filling at 18.96 ft
   
     2:05:00: Balanced after 1 trials
   
     2:10:00: Balanced after 1 trials
   
     2:15:00: Balanced after 1 trials
   
     2:20:00: Balanced after 1 trials
   
     2:25:00: Balanced after 1 trials
   
     2:30:00: Balanced after 1 trials
   
     2:35:00: Balanced after 1 trials
   
     2:40:00: Balanced after 1 trials
   
     2:45:00: Balanced after 1 trials
   
     2:50:00: Balanced after 1 trials
   
     2:55:00: Balanced after 1 trials
   
     3:00:00: Balanced after 3 trials
   
     3:05:00: Balanced after 1 trials
   
     3:10:00: Balanced after 1 trials
   
     3:15:00: Balanced after 1 trials
   
     3:20:00: Balanced after 1 trials
   
     3:25:00: Balanced after 1 trials
   
     3:30:00: Balanced after 1 trials
   
     3:35:00: Balanced after 1 trials
   
     3:40:00: Balanced after 1 trials
   
     3:45:00: Balanced after 1 trials
   
     3:50:00: Balanced after 1 trials
   
     3:55:00: Balanced after 1 trials
   
     4:00:00: Balanced after 3 trials
   
     4:05:00: Balanced after 1 trials
   
     4:10:00: Balanced after 1 trials
   
     4:15:00: Balanced after 1 trials
   
     4:20:00: Balanced after 1 trials
   
     4:25:00: Balanced after 1 trials
   
     4:30:00: Balanced after 1 trials
   
     4:35:00: Balanced after 1 trials
   
     4:40:00: Balanced after 1 trials
   
     4:45:00: Balanced after 1 trials
   
     4:50:00: Balanced after 1 trials
   
     4:55:00: Balanced after 1 trials
   
     5:00:00: Balanced after 3 trials
   
     5:01:39: Pump 335 changed by Tank 1 control
     5:01:39: Pipe 330 changed by Tank 1 control
     5:01:39: Balanced after 4 trials
     5:01:39: Tank 3 is emptying at 34.80 ft
     5:01:39: Pipe 330 changed from closed to open
     5:01:39: Pump 335 changed from open to closed
   
     5:05:00: Balanced after 2 trials
   
     5:10:00: Balanced after 2 trials
   
     5:15:00: Balanced after 2 trials
   
     5:20:00: Balanced after 2 trials
   
     5:25:00: Balanced after 2 trials
   
     5:30:00: Balanced after 2 trials
   
     5:35:00: Balanced after 2 trials
   
     5:40:00: Balanced after 2 trials
   
     5:45:00: Balanced after 2 trials
   
     5:50:00: Balanced after 2 trials
   
     5:55:00: Balanced after 2 trials
   
     6:00:00: Balanced after 3 trials
     6:00:00: Tank 3 is filling at 34.49 ft
   
     6:05:00: Balanced after 2 trials
   
     6:10:00: Balanced after 2 trials
   
     6:15:00: Balanced after 2 trials
   
     6:20:00: Balanced after 2 trials
   
     6:25:00: Balanced after 1 trials
   
     6:30:00: Balanced after 1 trials
   
     6:35:00: Balanced after 1 trials
   
     6:40:00: Balanced after 1 trials
   
     6:45:00: Balanced after 1 trials
   
     6:50:00: Balanced after 1 trials
   
     6:55:00: Balanced after 1 trials
   
     7:00:00: Balanced after 3 trials
   
     7:05:00: Balanced after 1 trials
   
     7:10:00: Balanced after 1 trials
   
     7:15:00: Balanced after 1 trials
   
     7:20:00: Balanced after 1 trials
   
     7:25:00: Balanced after 1 trials
   
     7:30:00: Balanced after 1 trials
   
     7:35:00: Balanced after 1 trials
   
     7:40:00: Balanced after 1 trials
   
     7:45:00: Balanced after 1 trials
   
     7:50:00: Balanced after 1 trials
   
     7:55:00: Balanced after 1 trials
   
     8:00:00: Balanced after 3 trials
   
     8:05:00: Balanced after 1 trials
   
     8:10:00: Balanced after 1 trials
   
     8:15:00: Balanced after 1 trials
   
     8:20:00: Balanced after 1 trials
   
     8:25:00: Balanced after 1 trials
   
     8:30:00: Balanced after 1 trials
   
     8:35:00: Balanced after 1 trials
   
     8:40:00: Balanced after 1 trials
   
     8:45:00: Balanced after 1 trials
   
     8:50:00: Balanced after 1 trials
   
     8:55:00: Balanced after 1 trials
   
     9:00:00: Balanced after 4 trials
     9:00:00: Tank 3 is emptying at 35.17 ft
   
     9:05:00: Balanced after 2 trials
   
     9:10:00: Balanced after 2 trials
   
     9:15:00: Balanced after 2 trials
   
     9:20:00: Balanced after 2 trials
   
     9:25:00: Balanced after 2 trials
   
     9:30:00: Balanced after 2 trials
   
     9:35:00: Balanced after 2 trials
   
     9:40:00: Balanced after 2 trials
   
     9:45:00: Balanced after 2 trials
   
     9:50:00: Balanced after 2 trials
   
     9:55:00: Balanced after 2 trials
   
    10:00:00: Balanced after 2 trials
   
    10:05:00: Balanced after 2 trials
   
    10:10:00: Balanced after 2 trials
   
    10:15:00: Balanced after 2 trials
   
    10:20:00: Balanced after 2 trials
   
    10:25:00: Balanced after 2 trials
   
    10:30:00: Balanced after 2 trials
   
    10:35:00: Balanced after 2 trials
   
    10:40:00: Balanced after 2 trials
   
    10:45:00: Balanced after 2 trials
   
    10:50:00: Balanced after 2 trials
   
    10:55:00: Balanced after 2 trials
   
    11:00:00: Balanced after 3 trials
   
    11:05:00: Balanced after 2 trials
   
    11:10:00: Balanced after 2 trials
   
    11:15:00: Balanced after 2 trials
   
    11:20:00: Balanced after 2 trials
   
    11:25:00: Balanced after 2 trials
   
    11:30:00: Balanced after 2 trials
   
    11:35:00: Balanced after 2 trials
   
    11:40:00: Balanced after 2 trials
   
    11:45:00: Balanced after 2 trials
   
    11:50:00: Balanced after 2 trials
   
    11:55:00: Balanced after 2 trials
   
    12:00:00: Balanced after 4 trials
   
    12:05:00: Balanced after 2 trials
   
    12:10:00: Balanced after 2 trials
   
    12:15:00: Balanced after 2 trials
   
    12:20:00: Balanced after 2 trials
   
    12:25:00: Balanced after 2 trials
   
    12:30:00: Balanced after 2 trials
   
    12:35:00: Balanced after 2 trials
   
    12:40:00: Balanced after 2 trials
   
    12:45:00: Balanced after 2 trials
   
    12:50:00: Balanced after 2 trials
   
    12:55:00: Balanced after 2 trials
   
    13:00:00: Balanced after 3 trials
   
    13:05:00: Balanced after 1 trials
   
    13:10:00: Balanced after 1 trials
   
    13:15:00: Balanced after 1 trials
   
    13:20:00: Balanced after 1 trials
   
    13:25:00: Balanced after 1 trials
   
    13:30:00: Balanced after 1 trials
   
    13:35:00: Balanced after 1 trials
   
    13:40:00: Balanced after 1 trials
   
    13:45:00: Balanced after 1 trials
   
    13:50:00: Balanced after 1 trials
   
    13:55:00: Balanced after 1 trials
   
    14:00:00: Balanced after 3 trials
   
    14:05:00: Balanced after 1 trials
   
    14:10:00: Balanced after 1 trials
   
    14:15:00: Balanced after 1 trials
   
    14:20:00: Balanced after 1 trials
   
    14:25:00: Balanced after 1 trials
   
    14:30:00: Balanced after 1 trials
   
    14:35:00: Balanced after 1 trials
   
    14:40:00: Balanced after 1 trials
   
    14:45:00: Balanced after 1 trials
   
    14:50:00: Balanced after 1 trials
   
    14:55:00: Balanced after 1 trials
   
    15:00:00: Pump 10 changed by timer control
    15:00:00: Balanced after 5 trials
    15:00:00: Reservoir Lake is closed
    15:00:00: Tank 1 is emptying at 22.32 ft
    15:00:00: Tank 2 is emptying at 28.57 ft
    15:00:00: Pump 10 changed from open to closed
   
    15:05:00: Balanced after 2 trials
   
    15:10:00: Balanced after 2 trials
   
    15:15:00: Balanced after 2 trials
   
    15:20:00: Balanced after 2 trials
   
    15:25:00: Balanced after 2 trials
   
    15:30:00: Balanced after 2 trials
   
    15:35:00: Balanced after 2 trials
   
    15:40:00: Balanced after 2 trials
   
    15:45:00: Balanced after 2 trials
   
    15:50:00: Balanced after 2 trials
   
    15:55:00: Balanced after 2 trials
   
    16:00:00: Balanced after 3 trials
   
    16:05:00: Balanced after 1 trials
   
    16:10:00: Balanced after 1 trials
   
    16:15:00: Balanced after 1 trials
   
    16:20:00: Balanced after 1 trials
   
    16:25:00: Balanced after 1 trials
   
    16:30:00: Balanced after 1 trials
   
    16:35:00: Balanced after 1 trials
   
    16:40:00: Balanced after 1 trials
   
    16:45:00: Balanced after 1 trials
   
    16:50:00: Balanced after 1 trials
   
    16:55:00: Balanced after 1 trials
   
    17:00:00: Balanced after 3 trials
   
    17:05:00: Balanced after 1 trials
   
    17:10:00: Balanced after 1 trials
   
    17:15:00: Balanced after 1 trials
   
    17:20:00: Balanced after 1 trials
   
    17:25:00: Balanced after 1 trials
   
    17:30:00: Balanced after 1 trials
   
    17:35:00: Balanced after 1 trials
   
    17:40:00: Balanced after 1 trials
   
    17:45:00: Balanced after 1 trials
   
    17:50:00: Balanced after 1 trials
   
    17:55:00: Balanced after 1 trials
   
    18:00:00: Balanced after 3 trials
    18:00:00: Tank 2 is filling at 27.38 ft
   
    18:05:00: Balanced after 2 trials
   
    18:10:00: Balanced after 2 trials
   
    18:15:00: Balanced after 2 trials
   
    18:20:00: Balanced after 2 trials
   
    18:25:00: Balanced after 2 trials
   
    18:30:00: Balanced after 2 trials
   
    18:35:00: Balanced after 2 trials
   
    18:40:00: Balanced after 1 trials
   
    18:45:00: Balanced after 1 trials
   
    18:50:00: Balanced after 1 trials
   
    18:55:00: Balanced after 1 trials
   
    19:00:00: Balanced after 3 trials
   
    19:05:00: Balanced after 1 trials
   
    19:10:00: Balanced after 1 trials
   
    19:15:00: Balanced after 1 trials
   
    19:20:00: Balanced after 1 trials
   
    19:25:00: Balanced after 1 trials
   
    19:30:00: Balanced after 1 trials
   
    19:35:00: Balanced after 1 trials
   
    19:40:00: Balanced after 1 trials
   
    19:45:00: Balanced after 1 trials
   
    19:50:00: Balanced after 1 trials
   
    19:55:00: Balanced after 1 trials
    19:55:00: Tank 2 is emptying at 27.57 ft
   
    20:00:00: Balanced after 2 trials
   
    20:05:00: Balanced after 1 trials
   
    20:10:00: Balanced after 1 trials
   
    20:15:00: Balanced after 1 trials
   
    20:20:00: Balanced after 1 trials
   
    20:25:00: Balanced after 1 trials
   
    20:30:00: Balanced after 1 trials
   
    20:35:00: Balanced after 1 trials
   
    20:40:00: Balanced after 1 trials
   
    20:45:00: Balanced after 1 trials
   
    20:50:00: Balanced after 1 trials
   
    20:55:00: Balanced after 1 trials
   
    21:00:00: Balanced after 3 trials
   
    21:05:00: Balanced after 2 trials
   
    21:10:00: Balanced after 2 trials
   
    21:15:00: Balanced after 2 trials
   
    21:20:00: Balanced after 2 trials
   
    21:25:00: Balanced after 2 trials
   
    21:30:00: Balanced after 2 trials
   
    21:35:00: Balanced after 2 trials
   
    21:40:00: Balanced after 1 trials
   
    21:45:00: Balanced after 1 trials
   
    21:50:00: Balanced after 1 trials
   
    21:55:00: Balanced after 1 trials
   
    21:59:19: Pump 335 changed by Tank 1 control
    21:59:19: Pipe 330 changed by Tank 1 control
    21:59:19: Balanced after 5 trials
    21:59:19: Tank 1 is filling at 17.10 ft
    21:59:19: Tank 3 is filling at 29.56 ft
    21:59:19: Pipe 330 changed from open to closed
    21:59:19: Pump 335 changed from closed to open
   
    22:00:00: Balanced after 3 trials
    22:00:00: Tank 1 is emptying at 17.10 ft
   
    22:05:00: Balanced after 2 trials
   
    22:10:00: Balanced after 2 trials
   
    22:15:00: Balanced after 2 trials
   
    22:20:00: Balanced after 2 trials
   
    22:25:00: Balanced after 2 trials
   
    22:30:00: Balanced after 2 trials
   
    22:35:00: Balanced after 2 trials
   
    22:40:00: Balanced after 2 trials
   
    22:45:00: Balanced after 2 trials
   
    22:50:00: Balanced after 2 trials
    22:50:00: Tank 1 is filling at 17.05 ft
   
    22:55:00: Balanced after 2 trials
   
    23:00:00: Balanced after 4 trials
    23:00:00: Tank 1 is emptying at 17.05 ft
   
    23:05:00: Balanced after 2 trials
   
    23:10:00: Balanced after 2 trials
   
    23:15:00: Balanced after 2 trials
   
    23:20:00: Balanced after 2 trials
   
    23:25:00: Balanced after 2 trials
   
    23:30:00: Balanced after 2 trials
   
    23:35:00: Balanced after 2 trials
   
    23:40:00: Balanced after 2 trials
   
    23:45:00: Balanced after 2 trials
   
    23:50:00: Balanced after 2 trials
   
    23:55:00: Balanced after 2 trials
   
    24:00:00: Balanced after 3 trials
   
   
  Node Results at 0:00:00 hrs:
  --------------------------------------------------------
                     Demand      Head  Pressure  Chemical
  Node                  gpm        ft       psi      mg/L
  --------------------------------------------------------
  10                   0.00    142.87     -1.79      0.00
  15                 622.36    124.16     39.93      0.00
  20                   0.00    158.00     12.57      0.00
  35                1630.90    144.28     57.10      0.00
  40                   0.00    145.00      5.68      0.00
  50                   0.00    140.00     10.18      0.00
  60                   0.00    208.97     90.55      0.00
  601                  0.00    302.16    130.93      0.00
  61                   0.00    302.16    130.93      0.00
  101                305.82    142.87     43.71      0.00
  103                214.45    142.84     43.26      0.00
  105                217.95    144.37     50.21      0.00
  107                 87.97    144.37     53.02      0.00
  109                372.55    142.86     53.10      0.00
  111                228.52    143.95     58.04      0.00
  113                 32.22    144.09     61.57      0.00
  115                 83.88    144.71     56.64      0.00
  117                189.51    148.00     58.23      0.00
  119                283.57    156.45     66.92      0.00
  120                  0.00    153.70     66.60      0.00
  121                 67.02    160.16     70.27      0.00
  123                  0.00    164.64     66.57      0.00
  125                 73.42    159.72     64.44      0.00
  127                 28.43    158.49     44.41      0.00
  129                  0.00    158.47     46.57      0.00
  131                 68.83    158.45     66.05      0.00
  139                  9.48    152.12     52.48      0.00
  141                 15.86    147.63     62.23      0.00
  143                  9.98    136.69     61.18      0.00
  145                 44.48    148.77     64.03      0.00
  147                 13.77    149.68     56.84      0.00
  149                 43.58    150.06     58.09      0.00
  151                232.61    154.00     52.21      0.00
  153                 71.11    154.10     38.09      0.00
  157                 83.38    153.89     61.00      0.00
  159                 66.53    150.37     62.56      0.00
  161                 25.44    147.99     62.39      0.00
  163                 15.17    147.51     61.75      0.00
  164                  0.00    147.51     61.75      0.00
  166                  4.19    147.51     64.78      0.00
  167                 23.44    145.56     65.24      0.00
  169                  0.00    145.57     65.24      0.00
  171                 63.34    144.45     64.32      0.00
  173                  0.00    144.42     64.31      0.00
  177                 93.65    144.29     59.06      0.00
  179                  0.00    144.30     59.06      0.00
  181                  0.00    144.29     59.05      0.00
  183                  0.00    144.27     57.75      0.00
  184                  0.00    142.37     54.75      0.00
  185                 41.30    143.12     55.08      0.00
  187                  0.00    143.83     56.91      0.00
  189                173.75    144.34     60.81      0.00
  191                131.86    143.98     51.55      0.00
  193                114.81    144.13     54.65      0.00
  195                  0.00    144.21     55.77      0.00
  197                 27.43    143.96     52.41      0.00
  199                192.11    137.62     60.50      0.00
  201                 71.82    136.65     59.17      0.00
  203               5314.94    136.42     58.25      0.00
  204                  0.00    143.58     53.11      0.00
  205                105.23    137.60     50.52      0.00
  206                  0.00    136.72     58.81      0.00
  207                111.72    136.80     55.38      0.00
  208                  0.00    136.63     52.27      0.00
  209                  1.40    136.48     60.00      0.00
  211                 13.96    136.42     56.08      0.00
  213                 22.44    136.34     56.04      0.00
  215                148.43    136.07     55.93      0.00
  217                 38.99    136.04     56.35      0.00
  219                 66.53    136.03     57.21      0.00
  225                 36.71    136.03     55.48      0.00
  229                103.33    136.30     54.51      0.00
  231                 26.53    136.29     56.89      0.00
  237                 25.13    136.52     53.09      0.00
  239                 71.82    136.62     53.56      0.00
  241                  0.00    136.62     53.56      0.00
  243                  6.99    136.62     53.13      0.00
  247                113.31    136.67     51.42      0.00
  249                  0.00    136.67     51.42      0.00
  251                 38.90    136.77     46.26      0.00
  253                 87.78    137.51     43.98      0.00
  255                 65.03    137.59     47.92      0.00
  257                  0.00    150.20     57.72      0.00
  259                  0.00    149.71     54.04      0.00
  261                  0.00    147.94     64.10      0.00
  263                  0.00    147.75     64.02      0.00
  265                  0.00    146.18     63.34      0.00
  267                  0.00    144.34     53.44      0.00
  269                  0.00    144.83     62.76      0.00
  271                  0.00    144.34     59.94      0.00
  273                  0.00    137.60     56.15      0.00
  275                  0.00    136.72     54.91      0.00
  River           -13185.82    220.00      0.00      0.00  Reservoir
  Lake                 0.00    167.00      0.00      0.00  Reservoir
  1                 -455.15    145.00      5.68      0.00  Tank
  2                 -629.03    140.00     10.18      0.00  Tank
  3                 1794.35    158.00     12.57      0.00  Tank
   
   
  Link Results at 0:00:00 hrs:
  ----------------------------------------------
                       Flow  Velocity  Headloss
  Link                  gpm       fps   /1000ft
  ----------------------------------------------
  20               -1794.35      0.07      0.00
  40                 455.15      0.02      0.00
  50                 629.03      0.03      0.00
  60               13185.82      9.35      8.96
  101                  0.00      0.00      0.00
  103                149.77      0.24      0.02
  105               -455.59      1.29      0.59
  107                  6.81      0.02      0.00
  109                -64.68      0.10      0.00
  111               -437.24      1.24      0.55
  112                480.05      1.36      0.65
  113               -158.10      0.45      0.08
  114                110.25      0.70      0.31
  115                -81.16      0.52      0.17
  116                -80.06      0.23      0.02
  117                680.34      1.93      1.24
  119               -755.36      2.14      1.51
  120               1238.02      3.51      3.76
  121               1105.68      3.14      3.05
  122                387.18      2.47      3.15
  123              10205.93      4.63      1.86
  125              13185.82      5.98      2.98
  129               2525.68      1.79      0.48
  131               2219.15      1.57      0.38
  133              -1794.35      1.83      0.62
  135                396.38      0.28      0.02
  137                 68.83      0.11      0.00
  145                327.55      2.09      2.31
  147                318.07      2.03      2.19
  149               -632.34      4.04      7.82
  151               -622.36      3.97      7.59
  153                330.14      0.94      0.33
  155                374.62      1.06      0.41
  159               -388.39      1.10      0.44
  161               -431.97      2.76      3.86
  163               -162.00      0.46      0.09
  169                233.11      1.49      1.23
  171                502.58      1.43      0.71
  173               8181.76      3.71      1.23
  175               8098.37      3.68      1.21
  177               8031.85      3.65      1.19
  179               7734.28      3.51      1.11
  180                  4.19      0.01      0.00
  181                  4.19      0.01      0.00
  183               7488.70      3.40      1.05
  185                -23.44      0.15      0.02
  186                340.67      2.17      2.49
  187               6818.33      3.09      0.88
  189               5411.96      2.46      0.57
  191              -1343.03      0.95      0.15
  193              -1630.90      1.16      0.21
  195               -163.03      0.46      0.09
  197               -256.69      0.73      0.20
  199                198.46      0.56      0.13
  201                455.15      1.29      0.59
  202                622.10      3.97      7.58
  203                322.72      2.06      2.25
  204                622.10      1.76      1.05
  205                340.67      0.97      0.34
  207                124.26      0.35      0.05
  209                211.35      1.35      1.03
  211                646.93      1.84      1.13
  213                129.33      0.37      0.06
  215                -12.74      0.04      0.00
  217               -316.23      0.90      0.30
  219               -272.13      0.77      0.23
  221                272.13      1.74      1.64
  223                -55.05      0.16      0.01
  225                -27.61      0.08      0.00
  229               5411.96      3.84      1.70
  231               5125.58      3.64      1.54
  233               5314.94      3.77      1.91
  235                 94.27      0.27      0.03
  237                484.89      1.38      0.66
  238                238.24      0.68      0.18
  239               -134.93      0.38      0.06
  240                238.24      0.68      0.18
  241                238.24      0.68      0.18
  243                236.84      0.38      0.04
  245                337.98      0.54      0.08
  247                290.65      0.46      0.06
  249                142.23      0.23      0.02
  251                 66.53      0.14      0.01
  257                 36.71      0.10      0.01
  261                 24.88      0.16      0.02
  263                 26.53      0.08      0.00
  269               -115.09      0.33      0.05
  271                104.98      0.67      0.28
  273               -245.21      0.70      0.19
  275               -114.43      0.32      0.05
  277                  6.99      0.02      0.00
  281               -121.42      0.50      0.12
  283               -202.60      0.57      0.13
  285                 63.89      0.18      0.02
  287               -298.62      1.22      0.66
  289                629.03      2.57      2.61
  291                 87.78      0.36      0.07
  293                177.61      1.13      0.74
  295               -138.71      0.39      0.07
  297                519.53      3.32      5.43
  299                249.68      1.59      1.40
  301                249.68      1.59      1.40
  303                269.85      1.72      1.61
  305                160.81      0.46      0.09
  307                430.66      1.22      0.53
  309                226.23      1.44      1.16
  311               -238.97      0.68      0.18
  313                522.10      1.48      0.76
  315              -1467.87      1.04      0.18
  317                126.25      0.81      0.40
  319                -31.98      0.09      0.00
  321               7714.93      3.50      1.11
  323               -261.18      0.74      0.21
  325                124.83      0.80      0.39
  329              13185.82      5.98      3.02
  330                  0.00      0.00      0.00
  333                 -0.00      0.00      0.00
  10                   0.00      0.00      0.00  Pump
  335              13185.82      0.00    -93.20  Pump
   
   
  Node Results at 0:05:00 hrs:
  --------------------------------------------------------
                     Demand      Head  Pressure  Chemical
  Node                  gpm        ft       psi      mg/L
  --------------------------------------------------------
  10                   0.00    142.85     -1.80      0.00
  15                 622.36    124.19     39.95      0.00
  20                   0.00    158.06     12.59      0.00
  35                1630.90    144.25     57.09      0.00
  40                   0.00    144.95      5.65      0.00
  50                   0.00    139.79     10.09      0.00
  60                   0.00    208.97     90.55      0.00
  601                  0.00    302.17    130.93      0.00
  61                   0.00    302.17    130.93      0.00
  101                305.82    142.85     43.70      0.00
  103                214.45    142.82     43.25      0.00
  105                217.95    144.35     50.20      0.00
  107                 87.97    144.35     53.01      0.00
  109                372.55    142.84     53.10      0.00
  111                228.52    143.93     58.03      0.00
  113                 32.22    144.07     61.56      0.00
  115                 83.88    144.69     56.63      0.00
  117                189.51    147.99     58.23      0.00
  119                283.57    156.46     66.93      0.00
  120                  0.00    153.71     66.60      0.00
  121                 67.02    160.19     70.28      0.00
  123                  0.00    164.66     66.58      0.00
  125                 73.42    159.75     64.45      0.00
  127                 28.43    158.54     44.43      0.00
  129                  0.00    158.52     46.59      0.00
  131                 68.83    158.49     66.08      0.00
  139                  9.48    152.15     52.50      0.00
  141                 15.86    147.66     62.25      0.00
  143                  9.98    136.71     61.19      0.00
  145                 44.48    148.80     64.04      0.00
  147                 13.77    149.70     56.85      0.00
  149                 43.58    150.09     58.10      0.00
  151                232.61    154.02     52.22      0.00
  153                 71.11    154.12     38.10      0.00
  157                 83.38    153.89     61.01      0.00
  159                 66.53    150.36     62.55      0.00
  161                 25.44    147.97     62.38      0.00
  163                 15.17    147.49     61.74      0.00
  164                  0.00    147.49     61.74      0.00
  166                  4.19    147.49     64.77      0.00
  167                 23.44    145.54     65.23      0.00
  169                  0.00    145.54     65.23      0.00
  171                 63.34    144.42     64.31      0.00
  173                  0.00    144.39     64.30      0.00
  177                 93.65    144.26     59.04      0.00
  179                  0.00    144.27     59.04      0.00
  181                  0.00    144.26     59.04      0.00
  183                  0.00    144.24     57.73      0.00
  184                  0.00    142.33     54.74      0.00
  185                 41.30    143.09     55.07      0.00
  187                  0.00    143.80     56.89      0.00
  189                173.75    144.32     60.80      0.00
  191                131.86    143.95     51.54      0.00
  193                114.81    144.11     54.64      0.00
  195                  0.00    144.19     55.76      0.00
  197                 27.43    143.94     52.40      0.00
  199                192.11    137.57     60.48      0.00
  201                 71.82    136.60     59.15      0.00
  203               5314.94    136.37     58.22      0.00
  204                  0.00    143.55     53.10      0.00
  205                105.23    137.55     50.50      0.00
  206                  0.00    136.66     58.78      0.00
  207                111.72    136.74     55.35      0.00
  208                  0.00    136.56     52.24      0.00
  209                  1.40    136.39     59.96      0.00
  211                 13.96    136.33     56.04      0.00
  213                 22.44    136.25     56.00      0.00
  215                148.43    135.98     55.89      0.00
  217                 38.99    135.95     56.31      0.00
  219                 66.53    135.93     57.17      0.00
  225                 36.71    135.94     55.44      0.00
  229                103.33    136.20     54.47      0.00
  231                 26.53    136.20     56.85      0.00
  237                 25.13    136.42     53.04      0.00
  239                 71.82    136.51     53.52      0.00
  241                  0.00    136.51     53.52      0.00
  243                  6.99    136.51     53.08      0.00
  247                113.31    136.56     51.37      0.00
  249                  0.00    136.56     51.37      0.00
  251                 38.90    136.65     46.21      0.00
  253                 87.78    137.36     43.92      0.00
  255                 65.03    137.44     47.85      0.00
  257                  0.00    150.20     57.71      0.00
  259                  0.00    149.71     54.04      0.00
  261                  0.00    147.93     64.10      0.00
  263                  0.00    147.74     64.02      0.00
  265                  0.00    146.16     63.33      0.00
  267                  0.00    144.31     53.43      0.00
  269                  0.00    144.81     62.74      0.00
  271                  0.00    144.30     59.93      0.00
  273                  0.00    137.55     56.13      0.00
  275                  0.00    136.66     54.88      0.00
  River           -13185.04    220.00      0.00      0.00  Reservoir
  Lake                 0.00    167.00      0.00      0.00  Reservoir
  1                 -447.27    144.95      5.65      0.00  Tank
  2                 -619.44    139.79     10.09      0.00  Tank
  3                 1776.10    158.06     12.59      0.00  Tank
   
   
  Link Results at 0:05:00 hrs:
  ----------------------------------------------
                       Flow  Velocity  Headloss
  Link                  gpm       fps   /1000ft
  ----------------------------------------------
  20               -1776.10      0.07      0.00
  40                 447.27      0.02      0.00
  50                 619.44      0.03      0.00
  60               13185.04      9.35      8.96
  101                  0.00      0.00      0.00
  103                150.31      0.24      0.02
  105               -456.13      1.29      0.59
  107                  7.13      0.02      0.00
  109                -64.14      0.10      0.00
  111               -436.69      1.24      0.55
  112                481.33      1.37      0.65
  113               -157.61      0.45      0.08
  114                110.69      0.71      0.31
  115                -80.84      0.52      0.17
  116                -79.14      0.22      0.02
  117                681.21      1.93      1.24
  119               -756.74      2.15      1.51
  120               1239.70      3.52      3.77
  121               1107.22      3.14      3.06
  122                387.76      2.48      3.16
  123              10222.24      4.64      1.86
  125              13185.04      5.98      2.98
  129               2508.02      1.78      0.48
  131               2201.24      1.56      0.37
  133              -1776.10      1.81      0.61
  135                396.70      0.28      0.02
  137                 68.83      0.11      0.00
  145                327.87      2.09      2.32
  147                318.39      2.03      2.19
  149               -632.34      4.04      7.82
  151               -622.36      3.97      7.59
  153                329.81      0.94      0.32
  155                374.29      1.06      0.41
  159               -388.06      1.10      0.44
  161               -431.64      2.76      3.85
  163               -162.25      0.46      0.09
  169                233.36      1.49      1.23
  171                502.00      1.42      0.71
  173               8196.96      3.72      1.24
  175               8113.58      3.68      1.21
  177               8047.05      3.65      1.20
  179               7749.16      3.52      1.11
  180                  4.19      0.01      0.00
  181                  4.19      0.01      0.00
  183               7503.27      3.41      1.05
  185                -23.44      0.15      0.02
  186                341.70      2.18      2.50
  187               6832.01      3.10      0.88
  189               5420.38      2.46      0.57
  191              -1348.29      0.96      0.15
  193              -1630.90      1.16      0.21
  195               -157.35      0.45      0.08
  197               -251.01      0.71      0.20
  199                196.27      0.56      0.12
  201                447.27      1.27      0.57
  202                623.26      3.98      7.61
  203                322.86      2.06      2.25
  204                623.26      1.77      1.06
  205                341.70      0.97      0.35
  207                126.60      0.36      0.06
  209                211.25      1.35      1.03
  211                647.81      1.84      1.13
  213                130.45      0.37      0.06
  215                -10.96      0.03      0.00
  217               -316.01      0.90      0.30
  219               -272.46      0.77      0.23
  221                272.46      1.74      1.64
  223                -53.70      0.15      0.01
  225                -26.27      0.07      0.00
  229               5420.38      3.84      1.70
  231               5131.46      3.64      1.54
  233               5314.94      3.77      1.91
  235                 96.82      0.27      0.03
  237                488.33      1.39      0.67
  238                247.83      0.70      0.19
  239               -128.78      0.37      0.06
  240                247.83      0.70      0.19
  241                247.83      0.70      0.19
  243                246.43      0.39      0.05
  245                339.55      0.54      0.08
  247                290.65      0.46      0.06
  249                142.23      0.23      0.02
  251                 66.53      0.14      0.01
  257                 36.71      0.10      0.01
  261                 26.46      0.17      0.02
  263                 26.53      0.08      0.00
  269               -107.08      0.30      0.04
  271                103.41      0.66      0.27
  273               -235.62      0.67      0.17
  275               -110.84      0.31      0.04
  277                  6.99      0.02      0.00
  281               -117.83      0.48      0.12
  283               -196.60      0.56      0.12
  285                 61.40      0.17      0.01
  287               -292.54      1.20      0.63
  289                619.44      2.53      2.54
  291                 87.78      0.36      0.07
  293                174.10      1.11      0.72
  295               -135.20      0.38      0.06
  297                520.25      3.32      5.45
  299                250.02      1.60      1.40
  301                250.02      1.60      1.40
  303                270.23      1.72      1.62
  305                160.96      0.46      0.09
  307                431.19      1.22      0.53
  309                226.54      1.45      1.17
  311               -237.50      0.67      0.18
  313                522.56      1.48      0.76
  315              -1473.55      1.05      0.18
  317                126.52      0.81      0.40
  319                -29.71      0.08      0.00
  321               7729.81      3.51      1.11
  323               -255.30      0.72      0.20
  325                125.25      0.80      0.39
  329              13185.04      5.98      3.02
  330                  0.00      0.00      0.00
  333                 -0.00      0.00      0.00
  10                   0.00      0.00      0.00  Pump
  335              13185.04      0.00    -93.20  Pump
   
   
  Node Results at 0:10:00 hrs:
  --------------------------------------------------------
                     Demand      Head  Pressure  Chemical
  Node                  gpm        ft       psi      mg/L
  --------------------------------------------------------
  10                   0.00    142.83     -1.81      0.00
  15                 622.36    124.22     39.96      0.00
  20                   0.00    158.11     12.61      0.00
  35                1630.90    144.22     57.07      0.00
  40                   0.00    144.89      5.63      0.00
  50                   0.00    139.57     10.00      0.00
  60                   0.00    208.97     90.55      0.00
  601                  0.00    302.18    130.93      0.00
  61                   0.00    302.18    130.93      0.00
  101                305.82    142.83     43.69      0.00
  103                214.45    142.80     43.24      0.00
  105                217.95    144.33     50.19      0.00
  107                 87.97    144.33     53.01      0.00
  109                372.55    142.82     53.09      0.00
  111                228.52    143.91     58.02      0.00
  113                 32.22    144.04     61.55      0.00
  115                 83.88    144.67     56.62      0.00
  117                189.51    147.98     58.23      0.00
  119                283.57    156.48     66.93      0.00
  120                  0.00    153.72     66.60      0.00
  121                 67.02    160.21     70.29      0.00
  123                  0.00    164.68     66.59      0.00
  125                 73.42    159.77     64.46      0.00
  127                 28.43    158.58     44.45      0.00
  129                  0.00    158.57     46.61      0.00
  131                 68.83    158.54     66.10      0.00
  139                  9.48    152.19     52.51      0.00
  141                 15.86    147.68     62.26      0.00
  143                  9.98    136.74     61.20      0.00
  145                 44.48    148.82     64.05      0.00
  147                 13.77    149.72     56.86      0.00
  149                 43.58    150.11     58.11      0.00
  151                232.61    154.03     52.23      0.00
  153                 71.11    154.14     38.10      0.00
  157                 83.38    153.90     61.01      0.00
  159                 66.53    150.35     62.55      0.00
  161                 25.44    147.95     62.37      0.00
  163                 15.17    147.47     61.73      0.00
  164                  0.00    147.47     61.73      0.00
  166                  4.19    147.47     64.77      0.00
  167                 23.44    145.51     65.22      0.00
  169                  0.00    145.51     65.22      0.00
  171                 63.34    144.39     64.30      0.00
  173                  0.00    144.36     64.28      0.00
  177                 93.65    144.23     59.03      0.00
  179                  0.00    144.24     59.03      0.00
  181                  0.00    144.23     59.03      0.00
  183                  0.00    144.21     57.72      0.00
  184                  0.00    142.30     54.73      0.00
  185                 41.30    143.06     55.06      0.00
  187                  0.00    143.77     56.88      0.00
  189                173.75    144.29     60.79      0.00
  191                131.86    143.93     51.53      0.00
  193                114.81    144.08     54.63      0.00
  195                  0.00    144.16     55.75      0.00
  197                 27.43    143.91     52.39      0.00
  199                192.11    137.52     60.45      0.00
  201                 71.82    136.55     59.12      0.00
  203               5314.94    136.32     58.20      0.00
  204                  0.00    143.52     53.09      0.00
  205                105.23    137.50     50.48      0.00
  206                  0.00    136.59     58.75      0.00
  207                111.72    136.68     55.32      0.00
  208                  0.00    136.48     52.21      0.00
  209                  1.40    136.30     59.93      0.00
  211                 13.96    136.24     56.00      0.00
  213                 22.44    136.16     55.96      0.00
  215                148.43    135.89     55.85      0.00
  217                 38.99    135.86     56.27      0.00
  219                 66.53    135.84     57.13      0.00
  225                 36.71    135.85     55.40      0.00
  229                103.33    136.11     54.42      0.00
  231                 26.53    136.10     56.81      0.00
  237                 25.13    136.32     53.00      0.00
  239                 71.82    136.40     53.47      0.00
  241                  0.00    136.40     53.47      0.00
  243                  6.99    136.40     53.04      0.00
  247                113.31    136.45     51.32      0.00
  249                  0.00    136.45     51.32      0.00
  251                 38.90    136.53     46.16      0.00
  253                 87.78    137.22     43.86      0.00
  255                 65.03    137.29     47.79      0.00
  257                  0.00    150.19     57.71      0.00
  259                  0.00    149.70     54.03      0.00
  261                  0.00    147.92     64.09      0.00
  263                  0.00    147.73     64.01      0.00
  265                  0.00    146.14     63.32      0.00
  267                  0.00    144.29     53.42      0.00
  269                  0.00    144.78     62.73      0.00
  271                  0.00    144.27     59.91      0.00
  273                  0.00    137.50     56.11      0.00
  275                  0.00    136.61     54.86      0.00
  River           -13184.27    220.00      0.00      0.00  Reservoir
  Lake                 0.00    167.00      0.00      0.00  Reservoir
  1                 -439.49    144.89      5.63      0.00  Tank
  2                 -609.92    139.57     10.00      0.00  Tank
  3                 1758.02    158.11     12.61      0.00  Tank
   
   
  Link Results at 0:10:00 hrs:
  ----------------------------------------------
                       Flow  Velocity  Headloss
  Link                  gpm       fps   /1000ft
  ----------------------------------------------
  20               -1758.02      0.07      0.00
  40                 439.49      0.02      0.00
  50                 609.92      0.03      0.00
  60               13184.27      9.35      8.96
  101                  0.00      0.00      0.00
  103                150.86      0.24      0.02
  105               -456.68      1.30      0.59
  107                  7.46      0.02      0.00
  109                -63.59      0.10      0.00
  111               -436.15      1.24      0.55
  112                482.60      1.37      0.66
  113               -157.14      0.45      0.08
  114                111.12      0.71      0.31
  115                -80.51      0.51      0.17
  116                -78.24      0.22      0.02
  117                682.08      1.93      1.25
  119               -758.11      2.15      1.52
  120               1241.37      3.52      3.78
  121               1108.74      3.15      3.07
  122                388.34      2.48      3.17
  123              10238.40      4.65      1.87
  125              13184.27      5.98      2.98
  129               2490.50      1.77      0.47
  131               2183.47      1.55      0.37
  133              -1758.02      1.80      0.60
  135                397.02      0.28      0.02
  137                 68.83      0.11      0.00
  145                328.19      2.09      2.32
  147                318.71      2.03      2.20
  149               -632.34      4.04      7.82
  151               -622.36      3.97      7.59
  153                329.49      0.93      0.32
  155                373.97      1.06      0.41
  159               -387.74      1.10      0.44
  161               -431.32      2.75      3.85
  163               -162.50      0.46      0.09
  169                233.61      1.49      1.24
  171                501.43      1.42      0.71
  173               8212.03      3.73      1.24
  175               8128.65      3.69      1.22
  177               8062.12      3.66      1.20
  179               7763.90      3.52      1.12
  180                  4.19      0.01      0.00
  181                  4.19      0.01      0.00
  183               7517.70      3.41      1.05
  185                -23.44      0.15      0.02
  186                342.71      2.19      2.51
  187               6845.58      3.11      0.89
  189               5428.75      2.46      0.58
  191              -1353.49      0.96      0.15
  193              -1630.90      1.16      0.21
  195               -151.73      0.43      0.08
  197               -245.39      0.70      0.19
  199                194.10      0.55      0.12
  201                439.49      1.25      0.55
  202                624.42      3.99      7.64
  203                323.01      2.06      2.25
  204                624.42      1.77      1.06
  205                342.71      0.97      0.35
  207                128.91      0.37      0.06
  209                211.15      1.35      1.03
  211                648.68      1.84      1.14
  213                131.56      0.37      0.06
  215                 -9.19      0.03      0.00
  217               -315.78      0.90      0.30
  219               -272.79      0.77      0.23
  221                272.79      1.74      1.65
  223                -52.36      0.15      0.01
  225                -24.93      0.07      0.00
  229               5428.75      3.85      1.71
  231               5137.37      3.64      1.54
  233               5314.94      3.77      1.91
  235                 99.27      0.28      0.04
  237                491.67      1.39      0.68
  238                257.36      0.73      0.21
  239               -122.60      0.35      0.05
  240                257.36      0.73      0.21
  241                257.36      0.73      0.21
  243                255.95      0.41      0.05
  245                341.02      0.54      0.09
  247                290.65      0.46      0.06
  249                142.23      0.23      0.02
  251                 66.53      0.14      0.01
  257                 36.71      0.10      0.01
  261                 27.92      0.18      0.02
  263                 26.53      0.08      0.00
  269                -99.02      0.28      0.03
  271                101.94      0.65      0.27
  273               -226.10      0.64      0.16
  275               -107.27      0.30      0.04
  277                  6.99      0.02      0.00
  281               -114.26      0.47      0.11
  283               -190.65      0.54      0.12
  285                 58.94      0.17      0.01
  287               -286.51      1.17      0.61
  289                609.92      2.49      2.47
  291                 87.78      0.36      0.07
  293                170.61      1.09      0.69
  295               -131.71      0.37      0.06
  297                520.97      3.33      5.46
  299                250.36      1.60      1.41
  301                250.36      1.60      1.41
  303                270.60      1.73      1.62
  305                161.12      0.46      0.09
  307                431.72      1.22      0.53
  309                226.84      1.45      1.17
  311               -236.04      0.67      0.17
  313                523.01      1.48      0.76
  315              -1479.17      1.05      0.18
  317                126.79      0.81      0.40
  319                -27.52      0.08      0.00
  321               7744.55      3.52      1.11
  323               -249.39      0.71      0.19
  325                125.67      0.80      0.39
  329              13184.27      5.98      3.02
  330                  0.00      0.00      0.00
  333                 -0.00      0.00      0.00
  10                   0.00      0.00      0.00  Pump
  335              13184.27      0.00    -93.21  Pump
   
   
  Node Results at 0:15:00 hrs:
  --------------------------------------------------------
                     Demand      Head  Pressure  Chemical
  Node                  gpm        ft       psi      mg/L
  --------------------------------------------------------
  10                   0.00    142.81     -1.82      0.00
  15                 622.36    124.24     39.97      0.00
  20                   0.00    158.17     12.64      0.00
  35                1630.90    144.19     57.06      0.00
  40                   0.00    144.84      5.61      0.00
  50                   0.00    139.37      9.91      0.00
  60                   0.00    208.97     90.55      0.00
  601                  0.00    302.19    130.94      0.00
  61                   0.00    302.19    130.94      0.00
  101                305.82    142.81     43.68      0.00
  103                214.45    142.78     43.23      0.00
  105                217.95    144.32     50.18      0.00
  107                 87.97    144.32     53.00      0.00
  109                372.55    142.80     53.08      0.00
  111                228.52    143.88     58.01      0.00
  113                 32.22    144.02     61.54      0.00
  115                 83.88    144.65     56.61      0.00
  117                189.51    147.97     58.22      0.00
  119                283.57    156.49     66.94      0.00
  120                  0.00    153.72     66.61      0.00
  121                 67.02    160.23     70.30      0.00
  123                  0.00    164.71     66.60      0.00
  125                 73.42    159.80     64.48      0.00
  127                 28.43    158.63     44.47      0.00
  129                  0.00    158.62     46.63      0.00
  131                 68.83    158.59     66.12      0.00
  139                  9.48    152.22     52.53      0.00
  141                 15.86    147.71     62.27      0.00
  143                  9.98    136.77     61.21      0.00
  145                 44.48    148.85     64.06      0.00
  147                 13.77    149.75     56.87      0.00
  149                 43.58    150.13     58.12      0.00
  151                232.61    154.05     52.24      0.00
  153                 71.11    154.16     38.11      0.00
  157                 83.38    153.90     61.01      0.00
  159                 66.53    150.34     62.54      0.00
  161                 25.44    147.94     62.37      0.00
  163                 15.17    147.45     61.73      0.00
  164                  0.00    147.45     61.73      0.00
  166                  4.19    147.45     64.76      0.00
  167                 23.44    145.49     65.21      0.00
  169                  0.00    145.49     65.21      0.00
  171                 63.34    144.36     64.28      0.00
  173                  0.00    144.33     64.27      0.00
  177                 93.65    144.20     59.02      0.00
  179                  0.00    144.21     59.02      0.00
  181                  0.00    144.20     59.01      0.00
  183                  0.00    144.18     57.71      0.00
  184                  0.00    142.26     54.71      0.00
  185                 41.30    143.03     55.04      0.00
  187                  0.00    143.75     56.87      0.00
  189                173.75    144.26     60.77      0.00
  191                131.86    143.90     51.52      0.00
  193                114.81    144.06     54.62      0.00
  195                  0.00    144.14     55.74      0.00
  197                 27.43    143.89     52.38      0.00
  199                192.11    137.47     60.43      0.00
  201                 71.82    136.50     59.10      0.00
  203               5314.94    136.27     58.18      0.00
  204                  0.00    143.50     53.08      0.00
  205                105.23    137.45     50.46      0.00
  206                  0.00    136.52     58.72      0.00
  207                111.72    136.62     55.30      0.00
  208                  0.00    136.41     52.17      0.00
  209                  1.40    136.22     59.89      0.00
  211                 13.96    136.15     55.96      0.00
  213                 22.44    136.07     55.92      0.00
  215                148.43    135.80     55.81      0.00
  217                 38.99    135.77     56.23      0.00
  219                 66.53    135.75     57.09      0.00
  225                 36.71    135.76     55.36      0.00
  229                103.33    136.01     54.38      0.00
  231                 26.53    136.00     56.76      0.00
  237                 25.13    136.21     52.96      0.00
  239                 71.82    136.29     53.42      0.00
  241                  0.00    136.29     53.42      0.00
  243                  6.99    136.29     52.99      0.00
  247                113.31    136.34     51.28      0.00
  249                  0.00    136.34     51.28      0.00
  251                 38.90    136.42     46.11      0.00
  253                 87.78    137.08     43.80      0.00
  255                 65.03    137.15     47.73      0.00
  257                  0.00    150.19     57.71      0.00
  259                  0.00    149.70     54.03      0.00
  261                  0.00    147.91     64.09      0.00
  263                  0.00    147.73     64.01      0.00
  265                  0.00    146.11     63.31      0.00
  267                  0.00    144.26     53.41      0.00
  269                  0.00    144.75     62.72      0.00
  271                  0.00    144.24     59.90      0.00
  273                  0.00    137.45     56.09      0.00
  275                  0.00    136.55     54.84      0.00
  River           -13183.50    220.00      0.00      0.00  Reservoir
  Lake                 0.00    167.00      0.00      0.00  Reservoir
  1                 -431.78    144.84      5.61      0.00  Tank
  2                 -600.46    139.37      9.91      0.00  Tank
  3                 1740.09    158.17     12.64      0.00  Tank
   
   
  Link Results at 0:15:00 hrs:
  ----------------------------------------------
                       Flow  Velocity  Headloss
  Link                  gpm       fps   /1000ft
  ----------------------------------------------
  20               -1740.09      0.07      0.00
  40                 431.78      0.02      0.00
  50                 600.46      0.03      0.00
  60               13183.50      9.35      8.96
  101                  0.00      0.00      0.00
  103                151.40      0.24      0.02
  105               -457.22      1.30      0.59
  107                  7.78      0.02      0.00
  109                -63.05      0.10      0.00
  111               -435.61      1.24      0.54
  112                483.86      1.37      0.66
  113               -156.68      0.44      0.08
  114                111.55      0.71      0.31
  115                -80.19      0.51      0.17
  116                -77.35      0.22      0.02
  117                682.94      1.94      1.25
  119               -759.47      2.15      1.52
  120               1243.03      3.53      3.79
  121               1110.26      3.15      3.08
  122                388.91      2.48      3.18
  123              10254.43      4.65      1.87
  125              13183.50      5.98      2.98
  129               2473.14      1.75      0.46
  131               2165.86      1.54      0.36
  133              -1740.09      1.78      0.59
  135                397.34      0.28      0.02
  137                 68.83      0.11      0.00
  145                328.51      2.10      2.32
  147                319.03      2.04      2.20
  149               -632.34      4.04      7.82
  151               -622.36      3.97      7.59
  153                329.17      0.93      0.32
  155                373.66      1.06      0.41
  159               -387.42      1.10      0.44
  161               -431.00      2.75      3.84
  163               -162.75      0.46      0.09
  169                233.86      1.49      1.24
  171                500.87      1.42      0.70
  173               8226.96      3.73      1.25
  175               8143.58      3.70      1.22
  177               8077.06      3.67      1.20
  179               7778.50      3.53      1.12
  180                  4.19      0.01      0.00
  181                  4.19      0.01      0.00
  183               7532.01      3.42      1.06
  185                -23.44      0.15      0.02
  186                343.72      2.19      2.53
  187               6859.03      3.11      0.89
  189               5437.05      2.47      0.58
  191              -1358.64      0.96      0.15
  193              -1630.90      1.16      0.21
  195               -146.17      0.41      0.07
  197               -239.83      0.68      0.18
  199                191.96      0.54      0.12
  201                431.78      1.22      0.54
  202                625.57      3.99      7.66
  203                323.15      2.06      2.25
  204                625.57      1.77      1.06
  205                343.72      0.98      0.35
  207                131.20      0.37      0.06
  209                211.07      1.35      1.02
  211                649.54      1.84      1.14
  213                132.65      0.38      0.06
  215                 -7.43      0.02      0.00
  217               -315.54      0.90      0.30
  219               -273.11      0.77      0.23
  221                273.11      1.74      1.65
  223                -51.03      0.14      0.01
  225                -23.59      0.07      0.00
  229               5437.05      3.86      1.71
  231               5143.31      3.65      1.55
  233               5314.94      3.77      1.91
  235                101.64      0.29      0.04
  237                494.92      1.40      0.69
  238                266.81      0.76      0.22
  239               -116.39      0.33      0.05
  240                266.81      0.76      0.22
  241                266.81      0.76      0.22
  243                265.41      0.42      0.05
  245                342.37      0.55      0.09
  247                290.65      0.46      0.06
  249                142.23      0.23      0.02
  251                 66.53      0.14      0.01
  257                 36.71      0.10      0.01
  261                 29.27      0.19      0.03
  263                 26.53      0.08      0.00
  269                -90.92      0.26      0.03
  271                100.59      0.64      0.26
  273               -216.64      0.61      0.15
  275               -103.73      0.29      0.04
  277                  6.99      0.02      0.00
  281               -110.72      0.45      0.10
  283               -184.73      0.52      0.11
  285                 56.49      0.16      0.01
  287               -280.52      1.15      0.59
  289                600.46      2.45      2.40
  291                 87.78      0.36      0.07
  293                167.14      1.07      0.66
  295               -128.25      0.36      0.06
  297                521.67      3.33      5.47
  299                250.70      1.60      1.41
  301                250.70      1.60      1.41
  303                270.97      1.73      1.63
  305                161.27      0.46      0.09
  307                432.24      1.23      0.54
  309                227.15      1.45      1.17
  311               -234.58      0.67      0.17
  313                523.45      1.48      0.76
  315              -1484.73      1.05      0.18
  317                127.06      0.81      0.40
  319                -25.42      0.07      0.00
  321               7759.15      3.52      1.12
  323               -243.45      0.69      0.19
  325                126.09      0.80      0.39
  329              13183.50      5.98      3.02
  330                  0.00      0.00      0.00
  333                 -0.00      0.00      0.00
  10                   0.00      0.00      0.00  Pump
  335              13183.50      0.00    -93.22  Pump
   
   
  Node Results at 0:20:00 hrs:
  --------------------------------------------------------
                     Demand      Head  Pressure  Chemical
  Node                  gpm        ft       psi      mg/L
  --------------------------------------------------------
  10                   0.00    142.79     -1.83      0.00
  15                 622.36    124.27     39.98      0.00
  20                   0.00    158.22     12.66      0.00
  35                1630.90    144.16     57.05      0.00
  40                   0.00    144.79      5.59      0.00
  50                   0.00    139.16      9.82      0.00
  60                   0.00    208.97     90.55      0.00
  601                  0.00    302.20    130.94      0.00
  61                   0.00    302.20    130.94      0.00
  101                305.82    142.79     43.67      0.00
  103                214.45    142.76     43.23      0.00
  105                217.95    144.30     50.18      0.00
  107                 87.97    144.30     52.99      0.00
  109                372.55    142.77     53.07      0.00
  111                228.52    143.86     58.00      0.00
  113                 32.22    144.00     61.53      0.00
  115                 83.88    144.63     56.60      0.00
  117                189.51    147.96     58.22      0.00
  119                283.57    156.50     66.95      0.00
  120                  0.00    153.73     66.61      0.00
  121                 67.02    160.26     70.31      0.00
  123                  0.00    164.73     66.61      0.00
  125                 73.42    159.83     64.49      0.00
  127                 28.43    158.68     44.49      0.00
  129                  0.00    158.66     46.65      0.00
  131                 68.83    158.63     66.14      0.00
  139                  9.48    152.26     52.54      0.00
  141                 15.86    147.74     62.28      0.00
  143                  9.98    136.79     61.22      0.00
  145                 44.48    148.87     64.07      0.00
  147                 13.77    149.77     56.88      0.00
  149                 43.58    150.16     58.13      0.00
  151                232.61    154.07     52.24      0.00
  153                 71.11    154.17     38.12      0.00
  157                 83.38    153.90     61.01      0.00
  159                 66.53    150.34     62.54      0.00
  161                 25.44    147.92     62.36      0.00
  163                 15.17    147.44     61.72      0.00
  164                  0.00    147.44     61.72      0.00
  166                  4.19    147.44     64.75      0.00
  167                 23.44    145.46     65.20      0.00
  169                  0.00    145.47     65.20      0.00
  171                 63.34    144.33     64.27      0.00
  173                  0.00    144.30     64.26      0.00
  177                 93.65    144.17     59.00      0.00
  179                  0.00    144.17     59.00      0.00
  181                  0.00    144.17     59.00      0.00
  183                  0.00    144.15     57.69      0.00
  184                  0.00    142.23     54.70      0.00
  185                 41.30    143.00     55.03      0.00
  187                  0.00    143.72     56.86      0.00
  189                173.75    144.23     60.76      0.00
  191                131.86    143.88     51.51      0.00
  193                114.81    144.03     54.61      0.00
  195                  0.00    144.12     55.73      0.00
  197                 27.43    143.87     52.37      0.00
  199                192.11    137.43     60.41      0.00
  201                 71.82    136.45     59.08      0.00
  203               5314.94    136.22     58.16      0.00
  204                  0.00    143.47     53.06      0.00
  205                105.23    137.40     50.44      0.00
  206                  0.00    136.46     58.69      0.00
  207                111.72    136.56     55.27      0.00
  208                  0.00    136.34     52.14      0.00
  209                  1.40    136.13     59.85      0.00
  211                 13.96    136.06     55.92      0.00
  213                 22.44    135.98     55.89      0.00
  215                148.43    135.71     55.77      0.00
  217                 38.99    135.68     56.19      0.00
  219                 66.53    135.66     57.05      0.00
  225                 36.71    135.67     55.32      0.00
  229                103.33    135.91     54.34      0.00
  231                 26.53    135.91     56.72      0.00
  237                 25.13    136.11     52.91      0.00
  239                 71.82    136.18     53.38      0.00
  241                  0.00    136.19     53.38      0.00
  243                  6.99    136.19     52.94      0.00
  247                113.31    136.23     51.23      0.00
  249                  0.00    136.23     51.23      0.00
  251                 38.90    136.31     46.06      0.00
  253                 87.78    136.94     43.74      0.00
  255                 65.03    137.01     47.67      0.00
  257                  0.00    150.19     57.71      0.00
  259                  0.00    149.69     54.03      0.00
  261                  0.00    147.90     64.09      0.00
  263                  0.00    147.72     64.01      0.00
  265                  0.00    146.09     63.30      0.00
  267                  0.00    144.23     53.40      0.00
  269                  0.00    144.73     62.71      0.00
  271                  0.00    144.21     59.89      0.00
  273                  0.00    137.40     56.07      0.00
  275                  0.00    136.50     54.81      0.00
  River           -13182.72    220.00      0.00      0.00  Reservoir
  Lake                 0.00    167.00      0.00      0.00  Reservoir
  1                 -424.17    144.79      5.59      0.00  Tank
  2                 -591.07    139.16      9.82      0.00  Tank
  3                 1722.31    158.22     12.66      0.00  Tank
   
   
  Link Results at 0:20:00 hrs:
  ----------------------------------------------
                       Flow  Velocity  Headloss
  Link                  gpm       fps   /1000ft
  ----------------------------------------------
  20               -1722.31      0.07      0.00
  40                 424.17      0.02      0.00
  50                 591.07      0.02      0.00
  60               13182.72      9.35      8.96
  101                  0.00      0.00      0.00
  103                151.94      0.24      0.02
  105               -457.75      1.30      0.60
  107                  8.10      0.02      0.00
  109                -62.52      0.10      0.00
  111               -435.07      1.23      0.54
  112                485.11      1.38      0.66
  113               -156.23      0.44      0.08
  114                111.97      0.71      0.32
  115                -79.87      0.51      0.17
  116                -76.48      0.22      0.02
  117                683.80      1.94      1.25
  119               -760.82      2.16      1.53
  120               1244.67      3.53      3.80
  121               1111.76      3.15      3.08
  122                389.47      2.49      3.19
  123              10270.31      4.66      1.88
  125              13182.72      5.98      2.98
  129               2455.92      1.74      0.46
  131               2148.39      1.52      0.36
  133              -1722.31      1.76      0.58
  135                397.65      0.28      0.02
  137                 68.83      0.11      0.00
  145                328.82      2.10      2.33
  147                319.34      2.04      2.21
  149               -632.34      4.04      7.82
  151               -622.36      3.97      7.59
  153                328.86      0.93      0.32
  155                373.34      1.06      0.41
  159               -387.11      1.10      0.44
  161               -430.69      2.75      3.84
  163               -162.99      0.46      0.09
  169                234.11      1.49      1.24
  171                500.31      1.42      0.70
  173               8241.76      3.74      1.25
  175               8158.38      3.70      1.23
  177               8091.86      3.67      1.21
  179               7792.98      3.54      1.13
  180                  4.19      0.01      0.00
  181                  4.19      0.01      0.00
  183               7546.18      3.43      1.06
  185                -23.44      0.15      0.02
  186                344.71      2.20      2.54
  187               6872.36      3.12      0.89
  189               5445.31      2.47      0.58
  191              -1363.72      0.97      0.15
  193              -1630.90      1.16      0.21
  195               -140.68      0.40      0.07
  197               -234.33      0.66      0.17
  199                189.84      0.54      0.12
  201                424.17      1.20      0.52
  202                626.71      4.00      7.69
  203                323.29      2.06      2.26
  204                626.71      1.78      1.07
  205                344.71      0.98      0.35
  207                133.46      0.38      0.06
  209                210.99      1.35      1.02
  211                650.38      1.84      1.14
  213                133.73      0.38      0.06
  215                 -5.68      0.02      0.00
  217               -315.28      0.89      0.30
  219               -273.44      0.78      0.23
  221                273.44      1.75      1.65
  223                -49.69      0.14      0.01
  225                -22.26      0.06      0.00
  229               5445.31      3.86      1.72
  231               5149.29      3.65      1.55
  233               5314.94      3.77      1.91
  235                103.92      0.29      0.04
  237                498.07      1.41      0.70
  238                276.20      0.78      0.23
  239               -110.15      0.31      0.04
  240                276.20      0.78      0.23
  241                276.20      0.78      0.23
  243                274.80      0.44      0.06
  245                343.62      0.55      0.09
  247                290.65      0.46      0.06
  249                142.23      0.23      0.02
  251                 66.53      0.14      0.01
  257                 36.71      0.10      0.01
  261                 30.52      0.19      0.03
  263                 26.53      0.08      0.00
  269                -82.78      0.23      0.03
  271                 99.34      0.63      0.25
  273               -207.25      0.59      0.14
  275               -100.21      0.28      0.04
  277                  6.99      0.02      0.00
  281               -107.20      0.44      0.10
  283               -178.86      0.51      0.10
  285                 54.05      0.15      0.01
  287               -274.57      1.12      0.56
  289                591.07      2.41      2.33
  291                 87.78      0.36      0.07
  293                163.70      1.04      0.64
  295               -124.80      0.35      0.05
  297                522.38      3.33      5.49
  299                251.04      1.60      1.41
  301                251.04      1.60      1.41
  303                271.34      1.73      1.63
  305                161.42      0.46      0.09
  307                432.76      1.23      0.54
  309                227.45      1.45      1.18
  311               -233.13      0.66      0.17
  313                523.87      1.49      0.77
  315              -1490.22      1.06      0.18
  317                127.33      0.81      0.40
  319                -23.41      0.07      0.00
  321               7773.63      3.53      1.12
  323               -237.48      0.67      0.18
  325                126.51      0.81      0.40
  329              13182.72      5.98      3.02
  330                  0.00      0.00      0.00
  333                 -0.00      0.00      0.00
  10                   0.00      0.00      0.00  Pump
  335              13182.72      0.00    -93.22  Pump
   
   
  Node Results at 0:25:00 hrs:
  --------------------------------------------------------
                     Demand      Head  Pressure  Chemical
  Node                  gpm        ft       psi      mg/L
  --------------------------------------------------------
  10                   0.00    142.77     -1.83      0.00
  15                 622.36    124.30     39.99      0.00
  20                   0.00    158.28     12.69      0.00
  35                1630.90    144.13     57.04      0.00
  40                   0.00    144.74      5.56      0.00
  50                   0.00    138.96      9.73      0.00
  60                   0.00    208.97     90.55      0.00
  601                  0.00    302.20    130.95      0.00
  61                   0.00    302.20    130.95      0.00
  101                305.82    142.77     43.66      0.00
  103                214.45    142.74     43.22      0.00
  105                217.95    144.28     50.17      0.00
  107                 87.97    144.28     52.99      0.00
  109                372.55    142.75     53.06      0.00
  111                228.52    143.84     57.99      0.00
  113                 32.22    143.97     61.52      0.00
  115                 83.88    144.61     56.59      0.00
  117                189.51    147.95     58.21      0.00
  119                283.57    156.51     66.95      0.00
  120                  0.00    153.73     66.61      0.00
  121                 67.02    160.28     70.32      0.00
  123                  0.00    164.75     66.62      0.00
  125                 73.42    159.86     64.50      0.00
  127                 28.43    158.72     44.51      0.00
  129                  0.00    158.71     46.67      0.00
  131                 68.83    158.68     66.16      0.00
  139                  9.48    152.29     52.56      0.00
  141                 15.86    147.76     62.29      0.00
  143                  9.98    136.82     61.23      0.00
  145                 44.48    148.90     64.08      0.00
  147                 13.77    149.79     56.89      0.00
  149                 43.58    150.18     58.14      0.00
  151                232.61    154.09     52.25      0.00
  153                 71.11    154.19     38.13      0.00
  157                 83.38    153.91     61.01      0.00
  159                 66.53    150.33     62.54      0.00
  161                 25.44    147.90     62.35      0.00
  163                 15.17    147.42     61.71      0.00
  164                  0.00    147.42     61.71      0.00
  166                  4.19    147.42     64.74      0.00
  167                 23.44    145.44     65.19      0.00
  169                  0.00    145.44     65.19      0.00
  171                 63.34    144.30     64.26      0.00
  173                  0.00    144.27     64.25      0.00
  177                 93.65    144.14     58.99      0.00
  179                  0.00    144.15     58.99      0.00
  181                  0.00    144.14     58.99      0.00
  183                  0.00    144.12     57.68      0.00
  184                  0.00    142.20     54.68      0.00
  185                 41.30    142.97     55.02      0.00
  187                  0.00    143.69     56.85      0.00
  189                173.75    144.21     60.75      0.00
  191                131.86    143.85     51.50      0.00
  193                114.81    144.01     54.60      0.00
  195                  0.00    144.09     55.72      0.00
  197                 27.43    143.84     52.36      0.00
  199                192.11    137.38     60.39      0.00
  201                 71.82    136.40     59.06      0.00
  203               5314.94    136.17     58.14      0.00
  204                  0.00    143.44     53.05      0.00
  205                105.23    137.35     50.41      0.00
  206                  0.00    136.39     58.67      0.00
  207                111.72    136.50     55.25      0.00
  208                  0.00    136.27     52.11      0.00
  209                  1.40    136.05     59.81      0.00
  211                 13.96    135.97     55.88      0.00
  213                 22.44    135.89     55.85      0.00
  215                148.43    135.61     55.73      0.00
  217                 38.99    135.59     56.15      0.00
[...]
  219                 60.33    138.68     58.36      0.00
  225                 33.29    138.68     56.63      0.00
  229                 93.70    138.85     55.62      0.00
  231                 24.06    138.85     58.00      0.00
  237                 22.79    138.99     54.16      0.00
  239                 65.13    139.00     54.60      0.00
  241                  0.00    139.00     54.60      0.00
  243                  6.34    139.00     54.16      0.00
  247                102.75    139.01     52.43      0.00
  249                  0.00    139.01     52.43      0.00
  251                 35.27    139.03     47.24      0.00
  253                 79.60    139.24     44.74      0.00
  255                 58.97    139.31     48.66      0.00
  257                  0.00    152.20     58.58      0.00
  259                  0.00    151.78     54.93      0.00
  261                  0.00    150.25     65.10      0.00
  263                  0.00    150.09     65.03      0.00
  265                  0.00    148.63     64.40      0.00
  267                  0.00    147.06     54.62      0.00
  269                  0.00    147.47     63.90      0.00
  271                  0.00    147.03     61.11      0.00
  273                  0.00    140.78     57.53      0.00
  275                  0.00    139.95     56.31      0.00
  River           -13199.86    220.00      0.00      0.00  Reservoir
  Lake                 0.00    167.00      0.00      0.00  Reservoir
  1                 -580.65    148.12      7.03      0.00  Tank
  2                 -400.36    140.35     10.34      0.00  Tank
  3                 1122.94    159.75     13.33      0.00  Tank
   
   
  Link Results at 23:55:00 hrs:
  ----------------------------------------------
                       Flow  Velocity  Headloss
  Link                  gpm       fps   /1000ft
  ----------------------------------------------
  20               -1122.94      0.05      0.00
  40                 580.65      0.02      0.00
  50                 400.36      0.02      0.00
  60               13199.86      9.36      8.98
  101                  0.00      0.00      0.00
  103                142.05      0.23      0.02
  105               -419.38      1.19      0.51
  107                  9.87      0.03      0.00
  109                -52.42      0.08      0.00
  111               -390.27      1.11      0.44
  112                449.91      1.28      0.58
  113               -139.52      0.40      0.07
  114                104.66      0.67      0.28
  115                -69.91      0.45      0.13
  116                -64.07      0.18      0.02
  117                626.88      1.78      1.07
  119               -700.55      1.99      1.31
  120               1143.17      3.24      3.25
  121               1020.03      2.89      2.63
  122                356.12      2.27      2.70
  123               9359.67      4.25      1.58
  125              11503.36      5.22      2.32
  129               1726.79      1.22      0.24
  131               1460.71      1.04      0.17
  133              -1122.94      1.15      0.26
  135                311.98      0.22      0.01
  137                 62.42      0.10      0.00
  145                249.57      1.59      1.40
  147                240.97      1.54      1.31
  149               -421.00      2.69      3.68
  151               -411.95      2.63      3.53
  153                194.41      0.55      0.12
  155                234.75      0.67      0.17
  159               -247.24      0.70      0.19
  161               -286.76      1.83      1.81
  163               -135.02      0.38      0.06
  169                199.51      1.27      0.92
  171                362.68      1.03      0.39
  173               7596.67      3.45      1.07
  175               7521.06      3.41      1.05
  177               7460.73      3.39      1.04
  179               7187.50      3.26      0.97
  180                  3.80      0.01      0.00
  181                  3.80      0.01      0.00
  183               6962.71      3.16      0.91
  185                -21.26      0.14      0.01
  186                330.62      2.11      2.35
  187               6351.48      2.88      0.77
  189               5179.08      2.35      0.53
  191              -1114.96      0.79      0.11
  193              -1542.26      1.09      0.19
  195               -310.22      0.88      0.29
  197               -395.15      1.12      0.45
  199                185.50      0.53      0.11
  201                580.65      1.65      0.93
  202                600.08      3.83      7.09
  203                306.91      1.96      2.05
  204                600.08      1.70      0.98
  205                330.62      0.94      0.33
  207                121.41      0.34      0.05
  209                196.02      1.25      0.89
  211                589.98      1.67      0.95
  213                134.60      0.38      0.06
  215                  2.09      0.01      0.00
  217               -287.12      0.81      0.25
  219               -250.16      0.71      0.19
  221                250.16      1.60      1.40
  223                -32.95      0.09      0.00
  225                 -8.07      0.02      0.00
  229               5179.08      3.67      1.57
  231               4889.34      3.47      1.41
  233               4956.98      3.52      1.68
  235                115.53      0.33      0.05
  237                497.57      1.41      0.70
  238                386.11      1.10      0.44
  239                -10.15      0.03      0.00
  240                386.11      1.10      0.43
  241                386.11      1.10      0.44
  243                384.84      0.61      0.11
  245                320.15      0.51      0.08
  247                263.57      0.42      0.05
  249                128.98      0.21      0.01
  251                 60.33      0.13      0.01
  257                 33.29      0.09      0.00
  261                 36.22      0.23      0.04
  263                 24.06      0.07      0.00
  269                 52.03      0.15      0.01
  271                 81.54      0.52      0.18
  273                -52.30      0.15      0.01
  275                -40.08      0.11      0.01
  277                  6.34      0.02      0.00
  281                -46.42      0.19      0.02
  283                -77.35      0.22      0.02
  285                 13.93      0.04      0.00
  287               -163.10      0.67      0.21
  289                400.36      1.64      1.13
  291                 79.60      0.33      0.06
  293                 98.69      0.63      0.25
  295                -63.42      0.18      0.02
  297                479.25      3.06      4.68
  299                230.30      1.47      1.20
  301                230.30      1.47      1.20
  303                248.95      1.59      1.39
  305                147.63      0.42      0.07
  307                396.58      1.13      0.46
  309                207.24      1.32      0.99
  311               -205.15      0.58      0.13
  313                472.90      1.34      0.63
  315              -1232.04      0.87      0.13
  317                122.62      0.78      0.37
  319                 -7.09      0.02      0.00
  321               7169.95      3.25      0.97
  323               -132.77      0.38      0.06
  325                117.08      0.75      0.34
  329              13199.86      5.99      3.03
  330                  0.00      0.00      0.00
  333                 -0.00      0.00      0.00
  10                   0.00      0.00      0.00  Pump
  335              13199.86      0.00    -93.07  Pump
   
   
  Node Results at 24:00:00 hrs:
  --------------------------------------------------------
                     Demand      Head  Pressure  Chemical
  Node                  gpm        ft       psi      mg/L
  --------------------------------------------------------
  10                   0.00    145.05     -0.85      0.00
  15                 622.36    126.06     40.76      0.00
  20                   0.00    159.79     13.34      0.00
  35                1630.90    146.55     58.08      0.00
  40                   0.00    148.05      7.00      0.00
  50                   0.00    140.22     10.28      0.00
  60                   0.00    209.06     90.59      0.00
  601                  0.00    302.81    131.21      0.00
  61                   0.00    302.81    131.21      0.00
  101                305.82    145.05     44.65      0.00
  103                214.45    145.02     44.21      0.00
  105                217.95    146.53     51.14      0.00
  107                 87.97    146.53     53.96      0.00
  109                372.55    145.04     54.05      0.00
  111                228.52    146.15     58.99      0.00
  113                 32.22    146.30     62.52      0.00
  115                 83.88    146.88     57.58      0.00
  117                189.51    150.09     59.14      0.00
  119                283.57    158.41     67.77      0.00
  120                  0.00    155.71     67.47      0.00
  121                 67.02    162.05     71.08      0.00
  123                  0.00    166.48     67.37      0.00
  125                 73.42    161.58     65.25      0.00
  127                 28.43    160.30     45.19      0.00
  129                  0.00    160.29     47.36      0.00
  131                 68.83    160.26     66.84      0.00
  139                  9.48    153.98     53.29      0.00
  141                 15.86    149.52     63.06      0.00
  143                  9.98    138.58     62.00      0.00
  145                 44.48    150.67     64.85      0.00
  147                 13.77    151.58     57.67      0.00
  149                 43.58    151.97     58.92      0.00
  151                232.61    155.93     53.05      0.00
  153                 71.11    156.03     38.92      0.00
  157                 83.38    155.90     61.88      0.00
  159                 66.53    152.46     63.46      0.00
  161                 25.44    150.13     63.32      0.00
  163                 15.17    149.67     62.68      0.00
  164                  0.00    149.67     62.68      0.00
  166                  4.19    149.67     65.72      0.00
  167                 23.44    147.77     66.19      0.00
  169                  0.00    147.77     66.19      0.00
  171                 63.34    146.67     65.29      0.00
  173                  0.00    146.65     65.27      0.00
  177                 93.65    146.56     60.04      0.00
  179                  0.00    146.58     60.05      0.00
  181                  0.00    146.55     60.03      0.00
  183                  0.00    146.54     58.73      0.00
  184                  0.00    144.54     55.70      0.00
  185                 41.30    145.33     56.04      0.00
  187                  0.00    146.04     57.86      0.00
  189                173.75    146.58     61.78      0.00
  191                131.86    146.18     52.51      0.00
  193                114.81    146.34     55.61      0.00
  195                  0.00    146.42     56.73      0.00
  197                 27.43    146.17     53.37      0.00
  199                192.11    139.62     61.36      0.00
  201                 71.82    138.62     60.02      0.00
  203               5314.94    138.39     59.10      0.00
  204                  0.00    145.79     54.07      0.00
  205                105.23    139.58     51.38      0.00
  206                  0.00    138.52     59.59      0.00
  207                111.72    138.68     56.19      0.00
  208                  0.00    138.33     53.01      0.00
  209                  1.40    138.01     60.67      0.00
  211                 13.96    137.91     56.72      0.00
  213                 22.44    137.82     56.68      0.00
  215                148.43    137.55     56.57      0.00
  217                 38.99    137.52     56.99      0.00
  219                 66.53    137.50     57.85      0.00
  225                 36.71    137.51     56.12      0.00
  229                103.33    137.73     55.13      0.00
  231                 26.53    137.73     57.51      0.00
  237                 25.13    137.91     53.69      0.00
  239                 71.82    137.94     54.14      0.00
  241                  0.00    137.94     54.14      0.00
  243                  6.99    137.94     53.70      0.00
  247                113.31    137.97     51.98      0.00
  249                  0.00    137.97     51.98      0.00
  251                 38.90    138.02     46.80      0.00
  253                 87.78    138.45     44.39      0.00
  255                 65.03    138.53     48.32      0.00
  257                  0.00    152.26     58.61      0.00
  259                  0.00    151.78     54.93      0.00
  261                  0.00    150.04     65.01      0.00
  263                  0.00    149.86     64.93      0.00
  265                  0.00    148.37     64.29      0.00
  267                  0.00    146.58     54.41      0.00
  269                  0.00    147.06     63.72      0.00
  271                  0.00    146.59     60.92      0.00
  273                  0.00    139.58     57.01      0.00
  275                  0.00    138.66     55.75      0.00
  River           -13123.56    220.00      0.00      0.00  Reservoir
  Lake                 0.00    167.00      0.00      0.00  Reservoir
  1                 -679.10    148.05      7.00      0.00  Tank
  2                 -518.77    140.22     10.28      0.00  Tank
  3                 1845.77    159.79     13.34      0.00  Tank
   
   
  Link Results at 24:00:00 hrs:
  ----------------------------------------------
                       Flow  Velocity  Headloss
  Link                  gpm       fps   /1000ft
  ----------------------------------------------
  20               -1845.77      0.08      0.00
  40                 679.10      0.03      0.00
  50                 518.77      0.02      0.00
  60               13123.56      9.31      8.88
  101                  0.00      0.00      0.00
  103                146.16      0.23      0.02
  105               -451.98      1.28      0.58
  107                  4.62      0.01      0.00
  109                -68.29      0.11      0.00
  111               -440.85      1.25      0.56
  112                471.69      1.34      0.63
  113               -162.26      0.46      0.09
  114                107.21      0.68      0.29
  115                -83.35      0.53      0.18
  116                -87.26      0.25      0.03
  117                674.55      1.91      1.22
  119               -746.13      2.12      1.47
  120               1226.83      3.48      3.70
  121               1095.45      3.11      3.00
  122                383.36      2.45      3.09
  123              10098.74      4.58      1.82
  125              13123.56      5.96      2.96
  129               2574.44      1.83      0.50
  131               2269.31      1.61      0.40
  133              -1845.77      1.88      0.65
  135                395.11      0.28      0.02
  137                 68.83      0.11      0.00
  145                326.28      2.08      2.30
  147                316.80      2.02      2.17
  149               -632.34      4.04      7.82
  151               -622.36      3.97      7.59
  153                331.40      0.94      0.33
  155                375.88      1.07      0.41
  159               -389.65      1.11      0.44
  161               -433.23      2.77      3.88
  163               -160.60      0.46      0.09
  169                231.71      1.48      1.22
  171                505.25      1.43      0.72
  173               8083.08      3.67      1.21
  175               7999.70      3.63      1.18
  177               7933.18      3.60      1.16
  179               7638.11      3.47      1.09
  180                  4.19      0.01      0.00
  181                  4.19      0.01      0.00
  183               7395.73      3.36      1.02
  185                -23.44      0.15      0.02
  186                343.63      2.19      2.53
  187               6736.96      3.06      0.86
  189               5509.05      2.50      0.59
  191              -1164.57      0.83      0.11
  193              -1630.90      1.16      0.21
  195               -345.17      0.98      0.35
  197               -438.82      1.24      0.55
  199                240.28      0.68      0.18
  201                679.10      1.93      1.24
  202                635.27      4.05      7.88
  203                332.94      2.13      2.38
  204                635.27      1.80      1.09
  205                343.63      0.97      0.35
  207                 92.66      0.26      0.03
  209                217.20      1.39      1.08
  211                635.33      1.80      1.09
  213                126.42      0.36      0.06
  215                -30.55      0.09      0.00
  217               -321.14      0.91      0.31
  219               -269.63      0.76      0.22
  221                269.63      1.72      1.61
  223                -62.85      0.18      0.02
  225                -35.42      0.10      0.01
  229               5509.05      3.91      1.76
  231               5198.00      3.69      1.58
  233               5314.94      3.77      1.91
  235                118.94      0.34      0.05
  237                519.55      1.47      0.75
  238                348.51      0.99      0.36
  239                -59.32      0.17      0.01
  240                348.51      0.99      0.36
  241                348.51      0.99      0.36
  243                347.11      0.55      0.09
  245                349.64      0.56      0.09
  247                290.65      0.46      0.06
  249                142.23      0.23      0.02
  251                 66.53      0.14      0.01
  257                 36.71      0.10      0.01
  261                 36.55      0.23      0.04
  263                 26.53      0.08      0.00
  269                -16.50      0.05      0.00
  271                 93.31      0.60      0.23
  273               -134.94      0.38      0.06
  275                -73.13      0.21      0.02
  277                  6.99      0.02      0.00
  281                -80.12      0.33      0.06
  283               -133.63      0.38      0.06
  285                 35.33      0.10      0.00
  287               -228.77      0.93      0.40
  289                518.77      2.12      1.83
  291                 87.78      0.36      0.07
  293                137.19      0.88      0.46
  295                -98.30      0.28      0.03
  297                514.75      3.29      5.34
  299                247.39      1.58      1.37
  301                247.39      1.58      1.37
  303                267.36      1.71      1.59
  305                159.80      0.45      0.08
  307                427.16      1.21      0.52
  309                223.02      1.42      1.13
  311               -253.57      0.72      0.20
  313                514.17      1.46      0.74
  315              -1285.73      0.91      0.14
  317                129.43      0.83      0.41
  319                -10.49      0.03      0.00
  321               7618.75      3.46      1.08
  323               -188.76      0.54      0.12
  325                121.16      0.77      0.37
  329              13123.56      5.96      3.00
  330                  0.00      0.00      0.00
  333                 -0.00      0.00      0.00
  10                   0.00      0.00      0.00  Pump
  335              13123.56      0.00    -93.75  Pump
   
  Analysis ended Wed May 06 16:45:38 2020
