  Page 1                                    Wed May 06 17:35:33 2020

  ******************************************************************
  *                           E P A N E T                          *
  *                   Hydraulic and Water Quality                  *
  *                   Analysis for Pipe Networks                   *
  *                         Version 2.00.12                        *
  ******************************************************************
  
  Analysis begun Wed May 06 17:35:33 2020

   
  Hydraulic Status:
  -----------------------------------------------------------------------
     0:00:00: Balanced after 5 trials
     0:00:00: Reservoir River is emptying
     0:00:00: Reservoir Lake is closed
     0:00:00: Tank 1 is filling at 13.10 ft
     0:00:00: Tank 2 is emptying at 23.50 ft
     0:00:00: Tank 3 is filling at 29.00 ft
   
     0:05:00: Balanced after 2 trials
   
     0:10:00: Balanced after 2 trials
   
     0:15:00: Balanced after 2 trials
   
     0:20:00: Balanced after 2 trials
   
     0:25:00: Balanced after 2 trials
   
     0:30:00: Balanced after 2 trials
   
     0:35:00: Balanced after 2 trials
   
     0:40:00: Balanced after 2 trials
   
     0:45:00: Balanced after 2 trials
   
     0:50:00: Balanced after 2 trials
   
     0:55:00: Balanced after 2 trials
   
     1:00:00: Pump 10 changed by timer control
     1:00:00: Balanced after 7 trials
     1:00:00: Reservoir Lake is emptying
     1:00:00: Pump 10 changed from closed to open
   
     1:05:00: Balanced after 2 trials
   
     1:10:00: Balanced after 2 trials
   
     1:15:00: Balanced after 2 trials
   
     1:20:00: Balanced after 2 trials
   
     1:25:00: Balanced after 2 trials
   
     1:30:00: Balanced after 2 trials
   
     1:35:00: Balanced after 2 trials
   
     1:40:00: Balanced after 2 trials
   
     1:45:00: Balanced after 2 trials
   
     1:50:00: Balanced after 2 trials
   
     1:55:00: Balanced after 2 trials
   
     2:00:00: Balanced after 3 trials
     2:00:00: Tank 2 is filling at 21.82 ft
   
     2:05:00: Balanced after 1 trials
   
     2:10:00: Balanced after 1 trials
   
     2:15:00: Balanced after 1 trials
   
     2:20:00: Balanced after 1 trials
   
     2:25:00: Balanced after 1 trials
   
     2:30:00: Balanced after 1 trials
   
     2:35:00: Balanced after 1 trials
   
     2:40:00: Balanced after 1 trials
   
     2:45:00: Balanced after 1 trials
   
     2:50:00: Balanced after 1 trials
   
     2:55:00: Balanced after 1 trials
   
     3:00:00: Balanced after 2 trials
   
     3:05:00: Balanced after 1 trials
   
     3:10:00: Balanced after 1 trials
   
     3:15:00: Balanced after 1 trials
   
     3:20:00: Balanced after 1 trials
   
     3:25:00: Balanced after 1 trials
   
     3:30:00: Balanced after 1 trials
   
     3:35:00: Balanced after 1 trials
   
     3:40:00: Balanced after 1 trials
   
     3:45:00: Balanced after 1 trials
   
     3:50:00: Balanced after 1 trials
   
     3:55:00: Balanced after 1 trials
   
     4:00:00: Balanced after 3 trials
   
     4:05:00: Balanced after 1 trials
   
     4:10:00: Balanced after 1 trials
   
     4:15:00: Balanced after 1 trials
   
     4:17:49: Pump 335 changed by Tank 1 control
     4:17:49: Pipe 330 changed by Tank 1 control
     4:17:49: Balanced after 4 trials
     4:17:49: Tank 3 is emptying at 34.24 ft
     4:17:49: Pipe 330 changed from closed to open
     4:17:49: Pump 335 changed from open to closed
   
     4:20:00: Balanced after 1 trials
   
     4:25:00: Balanced after 1 trials
   
     4:30:00: Balanced after 1 trials
   
     4:35:00: Balanced after 1 trials
   
     4:40:00: Balanced after 1 trials
   
     4:45:00: Balanced after 1 trials
   
     4:50:00: Balanced after 1 trials
   
     4:55:00: Balanced after 1 trials
   
     5:00:00: Balanced after 4 trials
     5:00:00: Tank 3 is filling at 34.23 ft
   
     5:05:00: Balanced after 2 trials
   
     5:10:00: Balanced after 2 trials
   
     5:15:00: Balanced after 2 trials
   
     5:20:00: Balanced after 2 trials
   
     5:25:00: Balanced after 2 trials
   
     5:30:00: Balanced after 2 trials
   
     5:35:00: Balanced after 2 trials
   
     5:40:00: Balanced after 2 trials
   
     5:45:00: Balanced after 2 trials
   
     5:50:00: Balanced after 2 trials
   
     5:55:00: Balanced after 2 trials
   
     6:00:00: Balanced after 3 trials
   
     6:05:00: Balanced after 1 trials
   
     6:10:00: Balanced after 1 trials
   
     6:15:00: Balanced after 1 trials
   
     6:20:00: Balanced after 1 trials
   
     6:25:00: Balanced after 1 trials
   
     6:30:00: Balanced after 1 trials
   
     6:35:00: Balanced after 1 trials
   
     6:40:00: Balanced after 1 trials
   
     6:45:00: Balanced after 1 trials
   
     6:50:00: Balanced after 1 trials
   
     6:55:00: Balanced after 1 trials
   
     7:00:00: Balanced after 3 trials
   
     7:05:00: Balanced after 1 trials
   
     7:10:00: Balanced after 1 trials
   
     7:15:00: Balanced after 1 trials
   
     7:20:00: Balanced after 1 trials
   
     7:25:00: Balanced after 1 trials
   
     7:30:00: Balanced after 1 trials
   
     7:35:00: Balanced after 1 trials
   
     7:40:00: Balanced after 1 trials
   
     7:45:00: Balanced after 1 trials
   
     7:50:00: Balanced after 1 trials
   
     7:55:00: Balanced after 1 trials
   
     8:00:00: Balanced after 2 trials
   
     8:05:00: Balanced after 1 trials
   
     8:10:00: Balanced after 1 trials
   
     8:15:00: Balanced after 1 trials
   
     8:20:00: Balanced after 1 trials
   
     8:25:00: Balanced after 1 trials
   
     8:30:00: Balanced after 1 trials
   
     8:35:00: Balanced after 1 trials
   
     8:40:00: Balanced after 1 trials
   
     8:45:00: Balanced after 1 trials
   
     8:50:00: Balanced after 1 trials
   
     8:55:00: Balanced after 1 trials
   
     9:00:00: Balanced after 3 trials
     9:00:00: Tank 1 is emptying at 21.82 ft
     9:00:00: Tank 3 is emptying at 35.16 ft
   
     9:05:00: Balanced after 1 trials
   
     9:10:00: Balanced after 1 trials
   
     9:15:00: Balanced after 1 trials
   
     9:20:00: Balanced after 1 trials
   
     9:25:00: Balanced after 1 trials
   
     9:30:00: Balanced after 1 trials
   
     9:35:00: Balanced after 1 trials
   
     9:40:00: Balanced after 1 trials
   
     9:45:00: Balanced after 1 trials
   
     9:50:00: Balanced after 1 trials
   
     9:55:00: Balanced after 1 trials
   
    10:00:00: Balanced after 3 trials
    10:00:00: Tank 1 is filling at 21.71 ft
   
    10:05:00: Balanced after 2 trials
   
    10:10:00: Balanced after 2 trials
   
    10:15:00: Balanced after 2 trials
   
    10:20:00: Balanced after 2 trials
   
    10:25:00: Balanced after 2 trials
   
    10:30:00: Balanced after 2 trials
   
    10:35:00: Balanced after 2 trials
   
    10:40:00: Balanced after 2 trials
    10:40:00: Tank 1 is closed at 21.74 ft
   
    10:45:00: Balanced after 2 trials
    10:45:00: Tank 1 is emptying at 21.74 ft
   
    10:50:00: Balanced after 2 trials
   
    10:55:00: Balanced after 2 trials
   
    11:00:00: Balanced after 3 trials
    11:00:00: Tank 2 is emptying at 27.26 ft
   
    11:05:00: Balanced after 1 trials
   
    11:10:00: Balanced after 1 trials
   
    11:15:00: Balanced after 1 trials
   
    11:20:00: Balanced after 1 trials
   
    11:25:00: Balanced after 1 trials
   
    11:30:00: Balanced after 1 trials
   
    11:35:00: Balanced after 1 trials
   
    11:40:00: Balanced after 1 trials
   
    11:45:00: Balanced after 1 trials
   
    11:50:00: Balanced after 1 trials
   
    11:55:00: Balanced after 1 trials
   
    12:00:00: Balanced after 4 trials
    12:00:00: Tank 1 is filling at 21.28 ft
    12:00:00: Tank 2 is filling at 26.98 ft
   
    12:05:00: Balanced after 2 trials
   
    12:10:00: Balanced after 2 trials
   
    12:15:00: Balanced after 2 trials
   
    12:20:00: Balanced after 2 trials
   
    12:25:00: Balanced after 2 trials
   
    12:30:00: Balanced after 2 trials
   
    12:35:00: Balanced after 2 trials
   
    12:40:00: Balanced after 2 trials
   
    12:45:00: Balanced after 2 trials
   
    12:50:00: Balanced after 2 trials
   
    12:55:00: Balanced after 2 trials
   
    13:00:00: Balanced after 3 trials
   
    13:05:00: Balanced after 2 trials
   
    13:10:00: Balanced after 2 trials
   
    13:15:00: Balanced after 2 trials
   
    13:20:00: Balanced after 2 trials
   
    13:25:00: Balanced after 2 trials
   
    13:30:00: Balanced after 2 trials
   
    13:35:00: Balanced after 2 trials
   
    13:40:00: Balanced after 2 trials
   
    13:45:00: Balanced after 2 trials
   
    13:50:00: Balanced after 2 trials
   
    13:55:00: Balanced after 2 trials
   
    14:00:00: Balanced after 3 trials
   
    14:05:00: Balanced after 2 trials
   
    14:10:00: Balanced after 2 trials
   
    14:15:00: Balanced after 2 trials
   
    14:20:00: Balanced after 2 trials
   
    14:25:00: Balanced after 2 trials
   
    14:30:00: Balanced after 2 trials
   
    14:35:00: Balanced after 2 trials
   
    14:40:00: Balanced after 2 trials
   
    14:45:00: Balanced after 2 trials
   
    14:50:00: Balanced after 2 trials
   
    14:55:00: Balanced after 2 trials
   
    15:00:00: Pump 10 changed by timer control
    15:00:00: Balanced after 5 trials
    15:00:00: Reservoir Lake is closed
    15:00:00: Tank 1 is emptying at 21.86 ft
    15:00:00: Tank 2 is emptying at 28.31 ft
    15:00:00: Pump 10 changed from open to closed
   
    15:05:00: Balanced after 2 trials
   
    15:10:00: Balanced after 2 trials
   
    15:15:00: Balanced after 2 trials
   
    15:20:00: Balanced after 2 trials
   
    15:25:00: Balanced after 2 trials
   
    15:30:00: Balanced after 2 trials
   
    15:35:00: Balanced after 2 trials
   
    15:40:00: Balanced after 2 trials
   
    15:45:00: Balanced after 2 trials
   
    15:50:00: Balanced after 2 trials
   
    15:55:00: Balanced after 2 trials
   
    16:00:00: Balanced after 4 trials
    16:00:00: Tank 2 is filling at 27.93 ft
   
    16:05:00: Balanced after 2 trials
   
    16:10:00: Balanced after 2 trials
   
    16:15:00: Balanced after 2 trials
   
    16:20:00: Balanced after 2 trials
   
    16:25:00: Balanced after 2 trials
   
    16:30:00: Balanced after 2 trials
   
    16:35:00: Balanced after 1 trials
   
    16:40:00: Balanced after 1 trials
   
    16:45:00: Balanced after 1 trials
    16:45:00: Tank 2 is emptying at 27.99 ft
   
    16:50:00: Balanced after 1 trials
   
    16:55:00: Balanced after 1 trials
   
    17:00:00: Balanced after 2 trials
   
    17:05:00: Balanced after 1 trials
   
    17:10:00: Balanced after 1 trials
   
    17:15:00: Balanced after 1 trials
   
    17:20:00: Balanced after 1 trials
   
    17:25:00: Balanced after 1 trials
   
    17:30:00: Balanced after 1 trials
   
    17:35:00: Balanced after 1 trials
   
    17:40:00: Balanced after 1 trials
   
    17:45:00: Balanced after 1 trials
   
    17:50:00: Balanced after 1 trials
   
    17:55:00: Balanced after 1 trials
   
    18:00:00: Balanced after 3 trials
   
    18:05:00: Balanced after 1 trials
   
    18:10:00: Balanced after 1 trials
   
    18:15:00: Balanced after 1 trials
   
    18:20:00: Balanced after 1 trials
   
    18:25:00: Balanced after 1 trials
   
    18:30:00: Balanced after 1 trials
   
    18:35:00: Balanced after 1 trials
   
    18:40:00: Balanced after 1 trials
   
    18:45:00: Balanced after 1 trials
   
    18:50:00: Balanced after 1 trials
   
    18:55:00: Balanced after 1 trials
   
    19:00:00: Balanced after 3 trials
    19:00:00: Tank 2 is filling at 27.65 ft
   
    19:05:00: Balanced after 2 trials
   
    19:10:00: Balanced after 2 trials
   
    19:15:00: Balanced after 2 trials
   
    19:20:00: Balanced after 2 trials
   
    19:25:00: Balanced after 2 trials
   
    19:30:00: Balanced after 2 trials
   
    19:35:00: Balanced after 2 trials
   
    19:40:00: Balanced after 2 trials
   
    19:45:00: Balanced after 2 trials
   
    19:50:00: Balanced after 2 trials
   
    19:55:00: Balanced after 2 trials
   
    20:00:00: Balanced after 4 trials
    20:00:00: Tank 2 is emptying at 27.91 ft
   
    20:05:00: Balanced after 2 trials
   
    20:10:00: Balanced after 2 trials
   
    20:15:00: Balanced after 2 trials
   
    20:20:00: Balanced after 2 trials
   
    20:25:00: Balanced after 2 trials
   
    20:30:00: Balanced after 2 trials
   
    20:35:00: Balanced after 2 trials
   
    20:40:00: Balanced after 2 trials
   
    20:45:00: Balanced after 2 trials
   
    20:50:00: Balanced after 2 trials
   
    20:55:00: Balanced after 2 trials
   
    21:00:00: Balanced after 3 trials
   
    21:05:00: Balanced after 2 trials
   
    21:10:00: Balanced after 2 trials
   
    21:13:45: Pump 335 changed by Tank 1 control
    21:13:45: Pipe 330 changed by Tank 1 control
    21:13:45: Balanced after 5 trials
    21:13:45: Tank 3 is filling at 29.54 ft
    21:13:45: Pipe 330 changed from open to closed
    21:13:45: Pump 335 changed from closed to open
   
    21:15:00: Balanced after 1 trials
   
    21:20:00: Balanced after 2 trials
   
    21:25:00: Balanced after 2 trials
   
    21:30:00: Balanced after 2 trials
   
    21:35:00: Balanced after 2 trials
   
    21:40:00: Balanced after 2 trials
   
    21:45:00: Balanced after 2 trials
   
    21:50:00: Balanced after 2 trials
   
    21:55:00: Balanced after 2 trials
   
    22:00:00: Balanced after 3 trials
   
    22:05:00: Balanced after 2 trials
   
    22:10:00: Balanced after 2 trials
   
    22:15:00: Balanced after 2 trials
   
    22:20:00: Balanced after 2 trials
   
    22:25:00: Balanced after 2 trials
   
    22:30:00: Balanced after 2 trials
   
    22:35:00: Balanced after 2 trials
   
    22:40:00: Balanced after 2 trials
   
    22:45:00: Balanced after 2 trials
   
    22:50:00: Balanced after 2 trials
   
    22:55:00: Balanced after 2 trials
   
    23:00:00: Balanced after 3 trials
   
    23:05:00: Balanced after 2 trials
   
    23:10:00: Balanced after 2 trials
   
    23:15:00: Balanced after 2 trials
   
    23:20:00: Balanced after 2 trials
   
    23:25:00: Balanced after 2 trials
   
    23:30:00: Balanced after 2 trials
   
    23:35:00: Balanced after 2 trials
   
    23:40:00: Balanced after 2 trials
   
    23:45:00: Balanced after 2 trials
   
    23:50:00: Balanced after 2 trials
   
    23:55:00: Balanced after 2 trials
   
    24:00:00: Balanced after 4 trials
    24:00:00: Tank 1 is filling at 15.08 ft
   
   
  Node Results at 0:00:00 hrs:
  --------------------------------------------------------
                     Demand      Head  Pressure  Chemical
  Node                  gpm        ft       psi      mg/L
  --------------------------------------------------------
  10                   0.00    145.91     -0.47      0.00
  15                 662.83    121.85     38.93      0.00
  20                   0.00    158.00     12.57      0.00
  35                1340.44    146.37     58.00      0.00
  40                   0.00    145.00      5.68      0.00
  50                   0.00    140.00     10.18      0.00
  60                   0.00    209.02     90.57      0.00
  601                  0.00    302.52    131.08      0.00
  61                   0.00    302.52    131.08      0.00
  101                260.23    145.91     45.02      0.00
  103                182.48    145.88     44.58      0.00
  105                185.46    147.20     51.43      0.00
  107                 74.86    147.20     54.25      0.00
  109                317.02    145.88     54.41      0.00
  111                194.46    146.56     59.17      0.00
  113                 27.41    146.63     62.67      0.00
  115                 71.38    147.33     57.77      0.00
  117                161.26    150.37     59.26      0.00
  119                241.30    157.80     67.51      0.00
  120                  0.00    155.39     67.33      0.00
  121                 57.03    161.19     70.71      0.00
  123                  0.00    165.65     67.01      0.00
  125                 62.47    160.57     64.81      0.00
  127                 24.19    158.78     44.54      0.00
  129                  0.00    158.77     46.70      0.00
  131                 58.57    158.75     66.19      0.00
  139                  8.07    152.56     52.67      0.00
  141                 13.49    148.15     62.46      0.00
  143                  8.49    135.93     60.85      0.00
  145                 37.85    149.56     64.37      0.00
  147                 11.71    150.62     57.25      0.00
  149                 37.09    151.06     58.52      0.00
  151                197.94    155.42     52.83      0.00
  153                 60.51    155.52     38.70      0.00
  157                 70.95    155.43     61.67      0.00
  159                 56.61    152.17     63.34      0.00
  161                 21.65    149.96     63.25      0.00
  163                 12.91    149.52     62.62      0.00
  164                  0.00    149.52     62.62      0.00
  166                  3.56    149.52     65.65      0.00
  167                 19.95    147.71     66.17      0.00
  169                  0.00    147.71     66.17      0.00
  171                 53.90    146.67     65.28      0.00
  173                  0.00    146.65     65.27      0.00
  177                 79.69    146.33     59.94      0.00
  179                  0.00    146.30     59.93      0.00
  181                  0.00    146.37     59.96      0.00
  183                  0.00    146.31     58.63      0.00
  184                  0.00    145.08     55.93      0.00
  185                 35.14    145.64     56.17      0.00
  187                  0.00    146.30     57.98      0.00
  189                147.85    146.62     61.80      0.00
  191                112.20    146.53     52.66      0.00
  193                 97.69    146.63     55.73      0.00
  195                  0.00    146.70     56.85      0.00
  197                 23.34    146.53     53.53      0.00
  199                163.47    141.54     62.20      0.00
  201                 61.12    140.83     60.98      0.00
  203               4299.67    140.67     60.09      0.00
  204                  0.00    146.07     54.19      0.00
  205                 89.54    141.50     52.21      0.00
  206                  0.00    140.51     60.45      0.00
  207                 95.06    140.78     57.10      0.00
  208                  0.00    140.20     53.82      0.00
  209                  1.19    139.67     61.39      0.00
  211                 11.88    139.49     57.41      0.00
  213                 19.10    139.42     57.38      0.00
  215                126.30    139.22     57.29      0.00
  217                 33.18    139.20     57.72      0.00
  219                 56.61    139.19     58.58      0.00
  225                 31.24    139.19     56.85      0.00
  229                 87.93    139.28     55.80      0.00
  231                 22.58    139.28     58.18      0.00
  237                 21.39    139.37     54.32      0.00
  239                 61.12    139.36     54.75      0.00
  241                  0.00    139.36     54.75      0.00
  243                  5.95    139.36     54.32      0.00
  247                 96.42    139.36     52.59      0.00
  249                  0.00    139.36     52.59      0.00
  251                 33.10    139.37     47.39      0.00
  253                 74.69    139.41     44.81      0.00
  255                 55.33    139.47     48.73      0.00
  257                  0.00    152.31     58.63      0.00
  259                  0.00    151.88     54.98      0.00
  261                  0.00    150.32     65.13      0.00
  263                  0.00    150.16     65.06      0.00
  265                  0.00    148.29     64.25      0.00
  267                  0.00    146.67     54.45      0.00
  269                  0.00    147.04     63.71      0.00
  271                  0.00    146.45     60.86      0.00
  273                  0.00    141.50     57.85      0.00
  275                  0.00    140.83     56.69      0.00
  River           -13151.87    220.00      0.00      0.00  Reservoir
  Lake                 0.00    167.00      0.00      0.00  Reservoir
  1                  636.02    145.00      5.68      0.00  Tank
  2                 -278.40    140.00     10.18      0.00  Tank
  3                 2315.41    158.00     12.57      0.00  Tank
   
   
  Link Results at 0:00:00 hrs:
  ----------------------------------------------
                       Flow  Velocity  Headloss
  Link                  gpm       fps   /1000ft
  ----------------------------------------------
  20               -2315.41      0.10      0.00
  40                -636.02      0.03      0.00
  50                 278.40      0.01      0.00
  60               13151.87      9.33      8.92
  101                  0.00      0.00      0.00
  103                160.63      0.26      0.02
  105               -420.86      1.19      0.51
  107                 25.92      0.07      0.00
  109                -21.86      0.03      0.00
  111               -338.88      0.96      0.34
  112                484.51      1.37      0.66
  113               -102.06      0.29      0.04
  114                118.75      0.76      0.35
  115                -48.94      0.31      0.07
  116                -10.73      0.03      0.00
  117                632.23      1.79      1.08
  119               -723.57      2.05      1.39
  120               1151.81      3.27      3.29
  121               1032.20      2.93      2.69
  122                365.26      2.33      2.83
  123               9725.35      4.41      1.70
  125              13151.87      5.97      2.97
  129               3004.23      2.13      0.66
  131               2721.45      1.93      0.55
  133              -2315.41      2.36      1.00
  135                381.85      0.27      0.01
  137                 58.57      0.09      0.00
  145                323.28      2.06      2.26
  147                315.21      2.01      2.15
  149               -671.32      4.28      8.73
  151               -662.83      4.23      8.53
  153                369.61      1.05      0.40
  155                407.46      1.16      0.48
  159               -419.17      1.19      0.51
  161               -456.26      2.91      4.27
  163               -159.79      0.45      0.08
  169                220.31      1.41      1.11
  171                494.40      1.40      0.69
  173               7837.84      3.56      1.14
  175               7766.89      3.53      1.12
  177               7710.28      3.50      1.10
  179               7436.89      3.38      1.03
  180                  3.56      0.01      0.00
  181                  3.56      0.01      0.00
  183               7209.67      3.27      0.98
  185                -19.95      0.13      0.01
  186                327.89      2.09      2.32
  187               6573.31      2.98      0.82
  189               4635.84      2.10      0.43
  191              -1883.58      1.34      0.28
  193              -1340.44      0.95      0.15
  195                679.44      1.93      1.24
  197                599.75      1.70      0.98
  199                -36.26      0.10      0.01
  201               -636.02      1.80      1.10
  202                532.61      3.40      5.69
  203                239.86      1.53      1.30
  204                532.61      1.51      0.79
  205                327.89      0.93      0.32
  207                276.12      0.78      0.23
  209                163.84      1.05      0.64
  211                616.41      1.75      1.03
  213                164.06      0.47      0.09
  215                107.71      0.31      0.04
  217               -246.37      0.70      0.19
  219               -251.75      0.71      0.20
  221                251.75      1.61      1.42
  223                 29.89      0.08      0.00
  225                 53.23      0.15      0.01
  229               4635.84      3.29      1.28
  231               4346.93      3.08      1.13
  233               4299.67      3.05      1.29
  235                125.44      0.36      0.05
  237                459.31      1.30      0.60
  238                459.59      1.30      0.60
  239                 95.34      0.27      0.03
  240                459.59      1.30      0.60
  241                459.59      1.30      0.60
  243                458.40      0.73      0.15
  245                313.59      0.50      0.07
  247                247.33      0.39      0.05
  249                121.03      0.19      0.01
  251                 56.61      0.12      0.01
  257                 31.24      0.09      0.00
  261                 47.17      0.30      0.06
  263                 22.58      0.06      0.00
  269                132.93      0.38      0.06
  271                 63.34      0.40      0.11
  273                 48.21      0.14      0.01
  275                 -1.19      0.00      0.00
  277                  5.95      0.02      0.00
  281                 -7.13      0.03      0.00
  283                -11.72      0.03      0.00
  285                -11.91      0.03      0.00
  287                -91.65      0.37      0.07
  289                278.40      1.14      0.58
  291                 74.69      0.31      0.05
  293                 56.73      0.36      0.09
  295                -23.63      0.07      0.00
  297                484.87      3.09      4.78
  299                232.96      1.49      1.23
  301                232.96      1.49      1.23
  303                251.91      1.61      1.42
  305                147.36      0.42      0.07
  307                399.28      1.13      0.46
  309                210.75      1.35      1.02
  311               -103.04      0.29      0.04
  313                480.10      1.36      0.65
  315              -2019.88      1.43      0.32
  317                109.20      0.70      0.30
  319                 16.25      0.05      0.00
  321               7420.42      3.37      1.03
  323                -13.86      0.04      0.00
  325                136.31      0.87      0.46
  329              13151.87      5.97      3.01
  330                  0.00      0.00      0.00
  333                 -0.00      0.00      0.00
  10                   0.00      0.00      0.00  Pump
  335              13151.87      0.00    -93.50  Pump
   
   
  Node Results at 0:05:00 hrs:
  --------------------------------------------------------
                     Demand      Head  Pressure  Chemical
  Node                  gpm        ft       psi      mg/L
  --------------------------------------------------------
  10                   0.00    145.96     -0.45      0.00
  15                 662.83    121.92     38.96      0.00
  20                   0.00    158.07     12.60      0.00
  35                1340.44    146.42     58.03      0.00
  40                   0.00    145.07      5.71      0.00
  50                   0.00    139.91     10.14      0.00
  60                   0.00    209.02     90.57      0.00
  601                  0.00    302.54    131.09      0.00
  61                   0.00    302.54    131.09      0.00
  101                260.23    145.96     45.05      0.00
  103                182.48    145.93     44.60      0.00
  105                185.46    147.26     51.46      0.00
  107                 74.86    147.25     54.27      0.00
  109                317.02    145.93     54.44      0.00
  111                194.46    146.62     59.20      0.00
  113                 27.41    146.68     62.69      0.00
  115                 71.38    147.38     57.80      0.00
  117                161.26    150.42     59.28      0.00
  119                241.30    157.86     67.53      0.00
  120                  0.00    155.45     67.36      0.00
  121                 57.03    161.25     70.74      0.00
  123                  0.00    165.70     67.03      0.00
  125                 62.47    160.64     64.84      0.00
  127                 24.19    158.85     44.57      0.00
  129                  0.00    158.84     46.73      0.00
  131                 58.57    158.82     66.22      0.00
  139                  8.07    152.63     52.70      0.00
  141                 13.49    148.21     62.49      0.00
  143                  8.49    135.99     60.87      0.00
  145                 37.85    149.62     64.40      0.00
  147                 11.71    150.68     57.27      0.00
  149                 37.09    151.12     58.55      0.00
  151                197.94    155.48     52.85      0.00
  153                 60.51    155.58     38.73      0.00
  157                 70.95    155.49     61.70      0.00
  159                 56.61    152.23     63.36      0.00
  161                 21.65    150.02     63.27      0.00
  163                 12.91    149.57     62.64      0.00
  164                  0.00    149.57     62.64      0.00
  166                  3.56    149.57     65.68      0.00
  167                 19.95    147.76     66.19      0.00
  169                  0.00    147.76     66.19      0.00
  171                 53.90    146.72     65.31      0.00
  173                  0.00    146.69     65.30      0.00
  177                 79.69    146.39     59.96      0.00
  179                  0.00    146.36     59.95      0.00
  181                  0.00    146.42     59.98      0.00
  183                  0.00    146.36     58.65      0.00
  184                  0.00    145.12     55.95      0.00
  185                 35.14    145.69     56.20      0.00
  187                  0.00    146.35     58.00      0.00
  189                147.85    146.67     61.82      0.00
  191                112.20    146.58     52.68      0.00
  193                 97.69    146.68     55.76      0.00
  195                  0.00    146.75     56.87      0.00
  197                 23.34    146.58     53.55      0.00
  199                163.47    141.57     62.21      0.00
  201                 61.12    140.86     60.99      0.00
  203               4299.67    140.70     60.10      0.00
  204                  0.00    146.12     54.21      0.00
  205                 89.54    141.53     52.23      0.00
  206                  0.00    140.52     60.45      0.00
  207                 95.06    140.80     57.11      0.00
  208                  0.00    140.20     53.82      0.00
  209                  1.19    139.65     61.38      0.00
  211                 11.88    139.46     57.40      0.00
  213                 19.10    139.39     57.36      0.00
  215                126.30    139.19     57.28      0.00
  217                 33.18    139.17     57.70      0.00
  219                 56.61    139.16     58.56      0.00
  225                 31.24    139.16     56.83      0.00
  229                 87.93    139.24     55.78      0.00
  231                 22.58    139.24     58.16      0.00
  237                 21.39    139.32     54.30      0.00
  239                 61.12    139.32     54.73      0.00
  241                  0.00    139.32     54.73      0.00
  243                  5.95    139.32     54.30      0.00
  247                 96.42    139.32     52.57      0.00
  249                  0.00    139.32     52.57      0.00
  251                 33.10    139.32     47.37      0.00
  253                 74.69    139.35     44.78      0.00
  255                 55.33    139.41     48.71      0.00
  257                  0.00    152.37     58.65      0.00
  259                  0.00    151.94     55.00      0.00
  261                  0.00    150.37     65.16      0.00
  263                  0.00    150.21     65.09      0.00
  265                  0.00    148.34     64.27      0.00
  267                  0.00    146.72     54.48      0.00
  269                  0.00    147.09     63.74      0.00
  271                  0.00    146.50     60.88      0.00
  273                  0.00    141.53     57.86      0.00
  275                  0.00    140.86     56.70      0.00
  River           -13149.87    220.00      0.00      0.00  Reservoir
  Lake                 0.00    167.00      0.00      0.00  Reservoir
  1                  629.84    145.07      5.71      0.00  Tank
  2                 -268.41    139.91     10.14      0.00  Tank
  3                 2309.59    158.07     12.60      0.00  Tank
   
   
  Link Results at 0:05:00 hrs:
  ----------------------------------------------
                       Flow  Velocity  Headloss
  Link                  gpm       fps   /1000ft
  ----------------------------------------------
  20               -2309.59      0.10      0.00
  40                -629.84      0.03      0.00
  50                 268.41      0.01      0.00
  60               13149.87      9.33      8.92
  101                  0.00      0.00      0.00
  103                160.74      0.26      0.02
  105               -420.97      1.19      0.51
  107                 25.99      0.07      0.00
  109                -21.74      0.03      0.00
  111               -338.76      0.96      0.34
  112                484.76      1.38      0.66
  113               -101.91      0.29      0.04
  114                118.83      0.76      0.35
  115                -48.87      0.31      0.07
  116                -10.49      0.03      0.00
  117                632.42      1.79      1.08
  119               -723.84      2.05      1.39
  120               1152.14      3.27      3.29
  121               1032.51      2.93      2.69
  122                365.38      2.33      2.83
  123               9728.87      4.42      1.70
  125              13149.87      5.97      2.97
  129               2998.59      2.13      0.66
  131               2715.74      1.93      0.55
  133              -2309.59      2.36      0.99
  135                381.95      0.27      0.01
  137                 58.57      0.09      0.00
  145                323.39      2.06      2.26
  147                315.32      2.01      2.15
  149               -671.32      4.28      8.73
  151               -662.83      4.23      8.53
  153                369.50      1.05      0.40
  155                407.35      1.16      0.48
  159               -419.07      1.19      0.51
  161               -456.15      2.91      4.27
  163               -159.86      0.45      0.08
  169                220.37      1.41      1.11
  171                494.23      1.40      0.69
  173               7841.19      3.56      1.14
  175               7770.24      3.53      1.12
  177               7713.63      3.50      1.11
  179               7440.20      3.38      1.03
  180                  3.56      0.01      0.00
  181                  3.56      0.01      0.00
  183               7213.01      3.27      0.98
  185                -19.95      0.13      0.01
  186                328.45      2.10      2.32
  187               6576.84      2.99      0.82
  189               4644.59      2.11      0.43
  191              -1878.35      1.33      0.28
  193              -1340.44      0.95      0.15
  195                674.26      1.91      1.22
  197                594.57      1.69      0.97
  199                -35.27      0.10      0.01
  201               -629.84      1.79      1.08
  202                533.85      3.41      5.71
  203                240.54      1.54      1.30
  204                533.85      1.51      0.79
  205                328.45      0.93      0.32
  207                275.81      0.78      0.23
  209                164.05      1.05      0.64
  211                616.23      1.75      1.03
  213                164.40      0.47      0.09
  215                107.83      0.31      0.04
  217               -246.50      0.70      0.19
  219               -251.79      0.71      0.20
  221                251.79      1.61      1.42
  223                 30.11      0.09      0.00
  225                 53.46      0.15      0.01
  229               4644.59      3.29      1.28
  231               4354.04      3.09      1.14
  233               4299.67      3.05      1.29
  235                127.08      0.36      0.06
  237                462.07      1.31      0.61
  238                469.58      1.33      0.63
  239                102.57      0.29      0.04
  240                469.58      1.33      0.63
  241                469.58      1.33      0.63
  243                468.39      0.75      0.15
  245                315.33      0.50      0.07
  247                247.33      0.39      0.05
  249                121.03      0.19      0.01
  251                 56.61      0.12      0.01
  257                 31.24      0.09      0.00
  261                 48.90      0.31      0.07
  263                 22.58      0.06      0.00
  269                141.18      0.40      0.07
  271                 61.60      0.39      0.10
  273                 58.19      0.17      0.01
  275                  2.72      0.01      0.00
  277                  5.95      0.02      0.00
  281                 -3.22      0.01      0.00
  283                 -5.64      0.02      0.00
  285                -14.27      0.04      0.00
  287                -85.37      0.35      0.06
  289                268.41      1.10      0.54
  291                 74.69      0.31      0.05
  293                 53.01      0.34      0.08
  295                -19.91      0.06      0.00
  297                485.02      3.10      4.78
  299                233.03      1.49      1.23
  301                233.03      1.49      1.23
  303                251.99      1.61      1.42
  305                147.40      0.42      0.07
  307                399.39      1.13      0.46
  309                210.72      1.35      1.02
  311               -102.89      0.29      0.04
  313                479.88      1.36      0.65
  315              -2014.70      1.43      0.32
  317                109.32      0.70      0.30
  319                 17.76      0.05      0.00
  321               7423.73      3.37      1.03
  323                 -6.75      0.02      0.00
  325                136.35      0.87      0.46
  329              13149.87      5.97      3.01
  330                  0.00      0.00      0.00
  333                 -0.00      0.00      0.00
  10                   0.00      0.00      0.00  Pump
  335              13149.87      0.00    -93.51  Pump
   
   
  Node Results at 0:10:00 hrs:
  --------------------------------------------------------
                     Demand      Head  Pressure  Chemical
  Node                  gpm        ft       psi      mg/L
  --------------------------------------------------------
  10                   0.00    146.01     -0.43      0.00
  15                 662.83    121.98     38.99      0.00
  20                   0.00    158.15     12.63      0.00
  35                1340.44    146.47     58.05      0.00
  40                   0.00    145.15      5.74      0.00
  50                   0.00    139.81     10.10      0.00
  60                   0.00    209.03     90.57      0.00
  601                  0.00    302.56    131.10      0.00
  61                   0.00    302.56    131.10      0.00
  101                260.23    146.01     45.07      0.00
  103                182.48    145.98     44.62      0.00
  105                185.46    147.31     51.48      0.00
  107                 74.86    147.30     54.29      0.00
  109                317.02    145.98     54.46      0.00
  111                194.46    146.67     59.22      0.00
  113                 27.41    146.73     62.71      0.00
  115                 71.38    147.44     57.82      0.00
  117                161.26    150.48     59.31      0.00
  119                241.30    157.91     67.56      0.00
  120                  0.00    155.51     67.38      0.00
  121                 57.03    161.31     70.76      0.00
  123                  0.00    165.76     67.06      0.00
  125                 62.47    160.70     64.86      0.00
  127                 24.19    158.92     44.60      0.00
  129                  0.00    158.91     46.76      0.00
  131                 58.57    158.89     66.25      0.00
  139                  8.07    152.70     52.73      0.00
  141                 13.49    148.28     62.52      0.00
  143                  8.49    136.05     60.90      0.00
  145                 37.85    149.68     64.42      0.00
  147                 11.71    150.74     57.30      0.00
  149                 37.09    151.19     58.58      0.00
  151                197.94    155.54     52.88      0.00
  153                 60.51    155.64     38.75      0.00
  157                 70.95    155.54     61.72      0.00
  159                 56.61    152.28     63.38      0.00
  161                 21.65    150.07     63.29      0.00
  163                 12.91    149.62     62.67      0.00
  164                  0.00    149.62     62.67      0.00
  166                  3.56    149.62     65.70      0.00
  167                 19.95    147.81     66.21      0.00
  169                  0.00    147.81     66.21      0.00
  171                 53.90    146.77     65.33      0.00
  173                  0.00    146.74     65.32      0.00
  177                 79.69    146.44     59.98      0.00
  179                  0.00    146.41     59.97      0.00
  181                  0.00    146.47     60.00      0.00
  183                  0.00    146.41     58.67      0.00
  184                  0.00    145.17     55.97      0.00
  185                 35.14    145.74     56.22      0.00
  187                  0.00    146.40     58.02      0.00
  189                147.85    146.72     61.84      0.00
  191                112.20    146.63     52.70      0.00
  193                 97.69    146.73     55.78      0.00
  195                  0.00    146.80     56.89      0.00
  197                 23.34    146.64     53.57      0.00
  199                163.47    141.60     62.22      0.00
  201                 61.12    140.89     61.00      0.00
  203               4299.67    140.73     60.11      0.00
  204                  0.00    146.17     54.24      0.00
  205                 89.54    141.56     52.24      0.00
  206                  0.00    140.53     60.46      0.00
  207                 95.06    140.82     57.12      0.00
  208                  0.00    140.20     53.82      0.00
  209                  1.19    139.63     61.37      0.00
  211                 11.88    139.43     57.38      0.00
  213                 19.10    139.36     57.35      0.00
  215                126.30    139.16     57.26      0.00
  217                 33.18    139.14     57.69      0.00
  219                 56.61    139.13     58.55      0.00
  225                 31.24    139.13     56.82      0.00
  229                 87.93    139.20     55.77      0.00
  231                 22.58    139.20     58.15      0.00
  237                 21.39    139.28     54.28      0.00
  239                 61.12    139.27     54.71      0.00
  241                  0.00    139.27     54.71      0.00
  243                  5.95    139.27     54.28      0.00
  247                 96.42    139.27     52.55      0.00
  249                  0.00    139.27     52.55      0.00
  251                 33.10    139.27     47.35      0.00
  253                 74.69    139.29     44.76      0.00
  255                 55.33    139.35     48.68      0.00
  257                  0.00    152.42     58.68      0.00
  259                  0.00    151.99     55.02      0.00
  261                  0.00    150.43     65.18      0.00
  263                  0.00    150.27     65.11      0.00
  265                  0.00    148.39     64.30      0.00
  267                  0.00    146.77     54.50      0.00
  269                  0.00    147.14     63.76      0.00
  271                  0.00    146.55     60.90      0.00
  273                  0.00    141.56     57.87      0.00
  275                  0.00    140.89     56.71      0.00
  River           -13147.87    220.00      0.00      0.00  Reservoir
  Lake                 0.00    167.00      0.00      0.00  Reservoir
  1                  623.83    145.15      5.74      0.00  Tank
  2                 -258.66    139.81     10.10      0.00  Tank
  3                 2303.85    158.15     12.63      0.00  Tank
   
   
  Link Results at 0:10:00 hrs:
  ----------------------------------------------
                       Flow  Velocity  Headloss
  Link                  gpm       fps   /1000ft
  ----------------------------------------------
  20               -2303.85      0.10      0.00
  40                -623.83      0.03      0.00
  50                 258.66      0.01      0.00
  60               13147.87      9.32      8.91
  101                  0.00      0.00      0.00
  103                160.85      0.26      0.02
  105               -421.09      1.19      0.51
  107                 26.06      0.07      0.00
  109                -21.63      0.03      0.00
  111               -338.65      0.96      0.34
  112                485.02      1.38      0.66
  113               -101.76      0.29      0.04
  114                118.92      0.76      0.35
  115                -48.79      0.31      0.07
  116                -10.26      0.03      0.00
  117                632.60      1.79      1.09
  119               -724.11      2.05      1.39
  120               1152.47      3.27      3.30
  121               1032.81      2.93      2.69
  122                365.50      2.33      2.83
  123               9732.32      4.42      1.70
  125              13147.87      5.97      2.97
  129               2993.01      2.12      0.66
  131               2710.10      1.92      0.55
  133              -2303.85      2.35      0.99
  135                382.06      0.27      0.01
  137                 58.57      0.09      0.00
  145                323.49      2.06      2.26
  147                315.42      2.01      2.16
  149               -671.32      4.28      8.73
  151               -662.83      4.23      8.53
  153                369.40      1.05      0.40
  155                407.25      1.16      0.48
  159               -418.96      1.19      0.51
  161               -456.05      2.91      4.27
  163               -159.92      0.45      0.09
  169                220.44      1.41      1.11
  171                494.06      1.40      0.69
  173               7844.49      3.56      1.14
  175               7773.54      3.53      1.12
  177               7716.93      3.50      1.11
  179               7443.46      3.38      1.03
  180                  3.56      0.01      0.00
  181                  3.56      0.01      0.00
  183               7216.29      3.28      0.98
  185                -19.95      0.13      0.01
  186                329.00      2.10      2.33
  187               6580.29      2.99      0.82
  189               4653.12      2.11      0.43
  191              -1873.27      1.33      0.28
  193              -1340.44      0.95      0.15
  195                669.22      1.90      1.20
  197                589.52      1.67      0.95
  199                -34.31      0.10      0.00
  201               -623.83      1.77      1.06
  202                535.07      3.42      5.74
  203                241.21      1.54      1.31
  204                535.07      1.52      0.80
  205                329.00      0.93      0.32
  207                275.51      0.78      0.23
  209                164.26      1.05      0.64
  211                616.05      1.75      1.03
  213                164.75      0.47      0.09
  215                107.95      0.31      0.04
  217               -246.62      0.70      0.19
  219               -251.82      0.71      0.20
  221                251.82      1.61      1.42
  223                 30.33      0.09      0.00
  225                 53.67      0.15      0.01
  229               4653.12      3.30      1.29
  231               4360.94      3.09      1.14
  233               4299.67      3.05      1.29
  235                128.71      0.37      0.06
  237                464.81      1.32      0.61
  238                479.33      1.36      0.65
  239                109.58      0.31      0.04
  240                479.33      1.36      0.65
  241                479.33      1.36      0.65
  243                478.14      0.76      0.16
  245                317.07      0.51      0.07
  247                247.33      0.39      0.05
  249                121.03      0.19      0.01
  251                 56.61      0.12      0.01
  257                 31.24      0.09      0.00
  261                 50.65      0.32      0.07
  263                 22.58      0.06      0.00
  269                149.19      0.42      0.07
  271                 59.86      0.38      0.10
  273                 67.95      0.19      0.02
  275                  6.69      0.02      0.00
  277                  5.95      0.02      0.00
  281                  0.75      0.00      0.00
  283                  0.14      0.00      0.00
  285                -16.42      0.05      0.00
  287                -79.25      0.32      0.06
  289                258.66      1.06      0.50
  291                 74.69      0.31      0.05
  293                 49.38      0.32      0.07
  295                -16.28      0.05      0.00
  297                485.16      3.10      4.79
  299                233.10      1.49      1.23
  301                233.10      1.49      1.23
  303                252.06      1.61      1.42
  305                147.44      0.42      0.07
  307                399.51      1.13      0.46
  309                210.70      1.34      1.02
  311               -102.75      0.29      0.04
  313                479.67      1.36      0.65
  315              -2009.66      1.43      0.32
  317                109.43      0.70      0.30
  319                 19.29      0.05      0.00
  321               7426.99      3.37      1.03
  323                  0.16      0.00      0.00
  325                136.39      0.87      0.46
  329              13147.87      5.97      3.01
  330                  0.00      0.00      0.00
  333                 -0.00      0.00      0.00
  10                   0.00      0.00      0.00  Pump
  335              13147.87      0.00    -93.53  Pump
   
   
  Node Results at 0:15:00 hrs:
  --------------------------------------------------------
                     Demand      Head  Pressure  Chemical
  Node                  gpm        ft       psi      mg/L
  --------------------------------------------------------
  10                   0.00    146.06     -0.41      0.00
  15                 662.83    122.04     39.02      0.00
  20                   0.00    158.22     12.66      0.00
  35                1340.44    146.52     58.07      0.00
  40                   0.00    145.22      5.77      0.00
  50                   0.00    139.73     10.06      0.00
  60                   0.00    209.03     90.57      0.00
  601                  0.00    302.58    131.11      0.00
  61                   0.00    302.58    131.11      0.00
  101                260.23    146.06     45.09      0.00
  103                182.48    146.03     44.64      0.00
  105                185.46    147.36     51.50      0.00
  107                 74.86    147.36     54.32      0.00
  109                317.02    146.04     54.48      0.00
  111                194.46    146.72     59.24      0.00
  113                 27.41    146.78     62.73      0.00
  115                 71.38    147.49     57.84      0.00
  117                161.26    150.53     59.33      0.00
  119                241.30    157.97     67.58      0.00
  120                  0.00    155.56     67.41      0.00
  121                 57.03    161.37     70.79      0.00
  123                  0.00    165.82     67.08      0.00
  125                 62.47    160.76     64.89      0.00
  127                 24.19    158.99     44.63      0.00
  129                  0.00    158.98     46.79      0.00
  131                 58.57    158.96     66.28      0.00
  139                  8.07    152.76     52.76      0.00
  141                 13.49    148.34     62.54      0.00
  143                  8.49    136.11     60.93      0.00
  145                 37.85    149.75     64.45      0.00
  147                 11.71    150.80     57.33      0.00
  149                 37.09    151.25     58.60      0.00
  151                197.94    155.60     52.90      0.00
  153                 60.51    155.70     38.78      0.00
  157                 70.95    155.60     61.74      0.00
  159                 56.61    152.33     63.41      0.00
  161                 21.65    150.12     63.31      0.00
  163                 12.91    149.68     62.69      0.00
  164                  0.00    149.68     62.69      0.00
  166                  3.56    149.68     65.72      0.00
  167                 19.95    147.86     66.23      0.00
  169                  0.00    147.86     66.23      0.00
  171                 53.90    146.81     65.35      0.00
  173                  0.00    146.79     65.34      0.00
  177                 79.69    146.49     60.01      0.00
  179                  0.00    146.46     59.99      0.00
  181                  0.00    146.52     60.02      0.00
  183                  0.00    146.46     58.70      0.00
  184                  0.00    145.21     55.99      0.00
  185                 35.14    145.79     56.24      0.00
  187                  0.00    146.45     58.04      0.00
  189                147.85    146.77     61.86      0.00
  191                112.20    146.68     52.73      0.00
  193                 97.69    146.78     55.80      0.00
  195                  0.00    146.85     56.91      0.00
  197                 23.34    146.69     53.59      0.00
  199                163.47    141.64     62.24      0.00
  201                 61.12    140.92     61.02      0.00
  203               4299.67    140.76     60.12      0.00
  204                  0.00    146.22     54.26      0.00
  205                 89.54    141.59     52.25      0.00
  206                  0.00    140.54     60.46      0.00
  207                 95.06    140.85     57.13      0.00
  208                  0.00    140.20     53.82      0.00
  209                  1.19    139.61     61.36      0.00
  211                 11.88    139.41     57.37      0.00
  213                 19.10    139.33     57.34      0.00
  215                126.30    139.13     57.25      0.00
  217                 33.18    139.11     57.68      0.00
  219                 56.61    139.10     58.54      0.00
  225                 31.24    139.10     56.81      0.00
  229                 87.93    139.16     55.75      0.00
  231                 22.58    139.16     58.13      0.00
  237                 21.39    139.24     54.26      0.00
  239                 61.12    139.22     54.69      0.00
  241                  0.00    139.22     54.69      0.00
  243                  5.95    139.22     54.26      0.00
  247                 96.42    139.22     52.53      0.00
  249                  0.00    139.22     52.53      0.00
  251                 33.10    139.22     47.33      0.00
  253                 74.69    139.24     44.73      0.00
  255                 55.33    139.29     48.66      0.00
  257                  0.00    152.48     58.70      0.00
  259                  0.00    152.05     55.05      0.00
  261                  0.00    150.48     65.20      0.00
  263                  0.00    150.32     65.13      0.00
  265                  0.00    148.44     64.32      0.00
  267                  0.00    146.82     54.52      0.00
  269                  0.00    147.19     63.78      0.00
  271                  0.00    146.60     60.92      0.00
  273                  0.00    141.59     57.89      0.00
  275                  0.00    140.92     56.73      0.00
  River           -13145.87    220.00      0.00      0.00  Reservoir
  Lake                 0.00    167.00      0.00      0.00  Reservoir
  1                  618.00    145.22      5.77      0.00  Tank
  2                 -249.15    139.73     10.06      0.00  Tank
  3                 2298.17    158.22     12.66      0.00  Tank
   
   
  Link Results at 0:15:00 hrs:
  ----------------------------------------------
                       Flow  Velocity  Headloss
  Link                  gpm       fps   /1000ft
  ----------------------------------------------
  20               -2298.17      0.10      0.00
  40                -618.00      0.03      0.00
  50                 249.15      0.01      0.00
  60               13145.87      9.32      8.91
  101                  0.00      0.00      0.00
  103                160.97      0.26      0.02
  105               -421.20      1.19      0.51
  107                 26.13      0.07      0.00
  109                -21.52      0.03      0.00
  111               -338.54      0.96      0.34
  112                485.27      1.38      0.66
  113               -101.61      0.29      0.04
  114                119.00      0.76      0.35
  115                -48.73      0.31      0.07
  116                -10.03      0.03      0.00
  117                632.79      1.80      1.09
  119               -724.37      2.05      1.39
  120               1152.80      3.27      3.30
  121               1033.12      2.93      2.69
  122                365.62      2.33      2.83
  123               9735.72      4.42      1.70
  125              13145.87      5.97      2.97
  129               2987.50      2.12      0.66
  131               2704.52      1.92      0.55
  133              -2298.17      2.35      0.98
  135                382.16      0.27      0.01
  137                 58.57      0.09      0.00
  145                323.59      2.07      2.26
  147                315.52      2.01      2.16
  149               -671.32      4.28      8.73
  151               -662.83      4.23      8.53
  153                369.29      1.05      0.40
  155                407.15      1.15      0.48
  159               -418.86      1.19      0.51
  161               -455.95      2.91      4.27
  163               -159.99      0.45      0.09
  169                220.50      1.41      1.11
  171                493.90      1.40      0.69
  173               7847.73      3.56      1.14
  175               7776.77      3.53      1.12
  177               7720.17      3.50      1.11
  179               7446.66      3.38      1.04
  180                  3.56      0.01      0.00
  181                  3.56      0.01      0.00
  183               7219.51      3.28      0.98
  185                -19.95      0.13      0.01
  186                329.54      2.10      2.34
  187               6583.68      2.99      0.82
  189               4661.45      2.12      0.43
  191              -1868.33      1.33      0.28
  193              -1340.44      0.95      0.15
  195                664.32      1.88      1.19
  197                584.63      1.66      0.94
  199                -33.37      0.09      0.00
  201               -618.00      1.75      1.04
  202                536.26      3.42      5.76
  203                241.86      1.54      1.32
  204                536.26      1.52      0.80
  205                329.54      0.93      0.32
  207                275.23      0.78      0.23
  209                164.46      1.05      0.65
  211                615.88      1.75      1.03
  213                165.08      0.47      0.09
  215                108.08      0.31      0.04
  217               -246.74      0.70      0.19
  219               -251.86      0.71      0.20
  221                251.86      1.61      1.42
  223                 30.54      0.09      0.00
  225                 53.89      0.15      0.01
  229               4661.45      3.31      1.29
  231               4367.62      3.10      1.14
  233               4299.67      3.05      1.29
  235                130.36      0.37      0.06
  237                467.55      1.33      0.62
  238                488.84      1.39      0.67
  239                116.36      0.33      0.05
  240                488.84      1.39      0.67
  241                488.84      1.39      0.67
  243                487.65      0.78      0.17
  245                318.82      0.51      0.08
  247                247.33      0.39      0.05
  249                121.03      0.19      0.01
  251                 56.61      0.12      0.01
  257                 31.24      0.09      0.00
  261                 52.39      0.33      0.08
  263                 22.58      0.06      0.00
  269                156.96      0.45      0.08
  271                 58.11      0.37      0.09
  273                 77.46      0.22      0.02
  275                 10.10      0.03      0.00
  277                  5.95      0.02      0.00
  281                  4.15      0.02      0.00
  283                  6.25      0.02      0.00
  285                -18.97      0.05      0.00
  287                -73.30      0.30      0.05
  289                249.15      1.02      0.47
  291                 74.69      0.31      0.05
  293                 45.82      0.29      0.06
  295                -12.72      0.04      0.00
  297                485.30      3.10      4.79
  299                233.16      1.49      1.23
  301                233.16      1.49      1.23
  303                252.14      1.61      1.42
  305                147.48      0.42      0.07
  307                399.62      1.13      0.46
  309                210.68      1.34      1.02
  311               -102.60      0.29      0.04
  313                479.46      1.36      0.65
  315              -2004.76      1.42      0.31
  317                109.53      0.70      0.30
  319                 20.84      0.06      0.00
  321               7430.19      3.37      1.03
  323                  6.83      0.02      0.00
  325                136.42      0.87      0.46
  329              13145.87      5.97      3.01
  330                  0.00      0.00      0.00
  333                 -0.00      0.00      0.00
  10                   0.00      0.00      0.00  Pump
  335              13145.87      0.00    -93.55  Pump
   
   
  Node Results at 0:20:00 hrs:
  --------------------------------------------------------
                     Demand      Head  Pressure  Chemical
  Node                  gpm        ft       psi      mg/L
  --------------------------------------------------------
  10                   0.00    146.12     -0.38      0.00
  15                 662.83    122.11     39.04      0.00
  20                   0.00    158.29     12.69      0.00
  35                1340.44    146.57     58.09      0.00
  40                   0.00    145.30      5.80      0.00
  50                   0.00    139.64     10.03      0.00
  60                   0.00    209.03     90.57      0.00
  601                  0.00    302.60    131.12      0.00
  61                   0.00    302.60    131.12      0.00
  101                260.23    146.12     45.11      0.00
  103                182.48    146.09     44.67      0.00
  105                185.46    147.41     51.53      0.00
  107                 74.86    147.41     54.34      0.00
  109                317.02    146.09     54.50      0.00
  111                194.46    146.77     59.26      0.00
  113                 27.41    146.83     62.76      0.00
  115                 71.38    147.54     57.86      0.00
  117                161.26    150.58     59.36      0.00
  119                241.30    158.03     67.61      0.00
  120                  0.00    155.62     67.43      0.00
  121                 57.03    161.43     70.82      0.00
  123                  0.00    165.88     67.11      0.00
  125                 62.47    160.83     64.92      0.00
  127                 24.19    159.06     44.66      0.00
  129                  0.00    159.05     46.82      0.00
  131                 58.57    159.03     66.31      0.00
  139                  8.07    152.83     52.79      0.00
  141                 13.49    148.40     62.57      0.00
  143                  8.49    136.18     60.96      0.00
  145                 37.85    149.81     64.48      0.00
  147                 11.71    150.86     57.35      0.00
  149                 37.09    151.31     58.63      0.00
  151                197.94    155.66     52.93      0.00
  153                 60.51    155.76     38.81      0.00
  157                 70.95    155.66     61.77      0.00
  159                 56.61    152.39     63.43      0.00
  161                 21.65    150.17     63.34      0.00
  163                 12.91    149.73     62.71      0.00
  164                  0.00    149.73     62.71      0.00
  166                  3.56    149.73     65.74      0.00
  167                 19.95    147.91     66.26      0.00
  169                  0.00    147.91     66.26      0.00
  171                 53.90    146.86     65.37      0.00
  173                  0.00    146.84     65.36      0.00
  177                 79.69    146.54     60.03      0.00
  179                  0.00    146.51     60.02      0.00
  181                  0.00    146.57     60.04      0.00
  183                  0.00    146.51     58.72      0.00
  184                  0.00    145.26     56.01      0.00
  185                 35.14    145.84     56.26      0.00
  187                  0.00    146.50     58.06      0.00
  189                147.85    146.83     61.89      0.00
  191                112.20    146.73     52.75      0.00
  193                 97.69    146.83     55.82      0.00
  195                  0.00    146.90     56.94      0.00
  197                 23.34    146.74     53.62      0.00
  199                163.47    141.67     62.25      0.00
  201                 61.12    140.95     61.03      0.00
  203               4299.67    140.79     60.14      0.00
  204                  0.00    146.27     54.28      0.00
  205                 89.54    141.62     52.27      0.00
  206                  0.00    140.56     60.47      0.00
  207                 95.06    140.87     57.14      0.00
  208                  0.00    140.20     53.82      0.00
  209                  1.19    139.59     61.35      0.00
  211                 11.88    139.38     57.36      0.00
  213                 19.10    139.30     57.33      0.00
  215                126.30    139.10     57.24      0.00
  217                 33.18    139.08     57.66      0.00
  219                 56.61    139.07     58.53      0.00
  225                 31.24    139.07     56.79      0.00
  229                 87.93    139.12     55.73      0.00
  231                 22.58    139.12     58.11      0.00
  237                 21.39    139.19     54.25      0.00
  239                 61.12    139.18     54.67      0.00
  241                  0.00    139.18     54.67      0.00
  243                  5.95    139.18     54.24      0.00
  247                 96.42    139.18     52.51      0.00
  249                  0.00    139.18     52.51      0.00
  251                 33.10    139.18     47.31      0.00
  253                 74.69    139.18     44.71      0.00
  255                 55.33    139.24     48.63      0.00
  257                  0.00    152.53     58.73      0.00
  259                  0.00    152.10     55.07      0.00
  261                  0.00    150.54     65.23      0.00
  263                  0.00    150.38     65.16      0.00
  265                  0.00    148.49     64.34      0.00
  267                  0.00    146.88     54.54      0.00
  269                  0.00    147.24     63.80      0.00
  271                  0.00    146.66     60.95      0.00
  273                  0.00    141.63     57.90      0.00
  275                  0.00    140.95     56.74      0.00
  River           -13143.87    220.00      0.00      0.00  Reservoir
  Lake                 0.00    167.00      0.00      0.00  Reservoir
  1                  612.34    145.30      5.80      0.00  Tank
  2                 -239.88    139.64     10.03      0.00  Tank
  3                 2292.56    158.29     12.69      0.00  Tank
   
   
  Link Results at 0:20:00 hrs:
  ----------------------------------------------
                       Flow  Velocity  Headloss
  Link                  gpm       fps   /1000ft
  ----------------------------------------------
  20               -2292.56      0.10      0.00
  40                -612.34      0.03      0.00
  50                 239.88      0.01      0.00
  60               13143.87      9.32      8.91
  101                  0.00      0.00      0.00
  103                161.08      0.26      0.02
  105               -421.31      1.20      0.51
  107                 26.20      0.07      0.00
  109                -21.41      0.03      0.00
  111               -338.43      0.96      0.34
  112                485.52      1.38      0.66
  113               -101.47      0.29      0.04
  114                119.08      0.76      0.35
  115                -48.66      0.31      0.07
  116                 -9.80      0.03      0.00
  117                632.96      1.80      1.09
  119               -724.63      2.06      1.40
  120               1153.12      3.27      3.30
  121               1033.41      2.93      2.69
  122                365.73      2.33      2.84
  123               9739.05      4.42      1.70
  125              13143.87      5.97      2.97
  129               2982.05      2.11      0.66
  131               2699.02      1.91      0.54
  133              -2292.56      2.34      0.98
  135                382.26      0.27      0.01
  137                 58.57      0.09      0.00
  145                323.70      2.07      2.26
  147                315.63      2.01      2.16
  149               -671.32      4.28      8.73
  151               -662.83      4.23      8.53
  153                369.19      1.05      0.40
  155                407.05      1.15      0.48
  159               -418.76      1.19      0.51
  161               -455.85      2.91      4.26
  163               -160.05      0.45      0.09
  169                220.56      1.41      1.11
  171                493.73      1.40      0.69
  173               7850.90      3.56      1.14
  175               7779.95      3.53      1.12
  177               7723.34      3.51      1.11
  179               7449.79      3.38      1.04
  180                  3.56      0.01      0.00
  181                  3.56      0.01      0.00
  183               7222.67      3.28      0.98
  185                -19.95      0.13      0.01
  186                330.07      2.11      2.34
  187               6587.00      2.99      0.82
  189               4669.56      2.12      0.44
  191              -1863.54      1.32      0.27
  193              -1340.44      0.95      0.15
  195                659.56      1.87      1.17
  197                579.87      1.64      0.92
  199                -32.46      0.09      0.00
  201               -612.34      1.74      1.02
  202                537.42      3.43      5.78
  203                242.49      1.55      1.32
  204                537.42      1.52      0.80
  205                330.07      0.94      0.33
  207                274.96      0.78      0.23
  209                164.66      1.05      0.65
  211                615.72      1.75      1.03
  213                165.41      0.47      0.09
  215                108.20      0.31      0.04
  217               -246.86      0.70      0.19
  219               -251.90      0.71      0.20
  221                251.90      1.61      1.42
  223                 30.75      0.09      0.00
  225                 54.10      0.15      0.01
  229               4669.56      3.31      1.29
  231               4374.04      3.10      1.15
  233               4299.67      3.05      1.29
  235                132.05      0.37      0.06
  237                470.30      1.33      0.63
  238                498.11      1.41      0.70
  239                122.88      0.35      0.05
  240                498.11      1.41      0.70
  241                498.11      1.41      0.70
  243                496.92      0.79      0.17
  245                320.56      0.51      0.08
  247                247.33      0.39      0.05
  249                121.03      0.19      0.01
  251                 56.61      0.12      0.01
  257                 31.24      0.09      0.00
  261                 54.14      0.35      0.08
  263                 22.58      0.06      0.00
  269                164.48      0.47      0.09
  271                 56.37      0.36      0.09
  273                 86.73      0.25      0.03
  275                 13.31      0.04      0.00
  277                  5.95      0.02      0.00
  281                  7.36      0.03      0.00
  283                 12.30      0.03      0.00
  285                -21.54      0.06      0.00
  287                -67.51      0.28      0.04
  289                239.88      0.98      0.44
  291                 74.69      0.31      0.05
  293                 42.34      0.27      0.05
  295                 -9.24      0.03      0.00
  297                485.44      3.10      4.79
  299                233.23      1.49      1.23
  301                233.23      1.49      1.23
  303                252.21      1.61      1.42
  305                147.52      0.42      0.07
  307                399.73      1.13      0.46
  309                210.66      1.34      1.02
  311               -102.46      0.29      0.04
  313                479.26      1.36      0.65
  315              -2000.00      1.42      0.31
  317                109.62      0.70      0.30
  319                 22.42      0.06      0.00
  321               7433.33      3.37      1.03
  323                 13.26      0.04      0.00
  325                136.46      0.87      0.46
  329              13143.87      5.97      3.00
  330                  0.00      0.00      0.00
  333                 -0.00      0.00      0.00
  10                   0.00      0.00      0.00  Pump
  335              13143.87      0.00    -93.57  Pump
   
   
  Node Results at 0:25:00 hrs:
  --------------------------------------------------------
                     Demand      Head  Pressure  Chemical
  Node                  gpm        ft       psi      mg/L
  --------------------------------------------------------
  10                   0.00    146.17     -0.36      0.00
  15                 662.83    122.17     39.07      0.00
  20                   0.00    158.36     12.72      0.00
  35                1340.44    146.62     58.11      0.00
  40                   0.00    145.37      5.84      0.00
  50                   0.00    139.56      9.99      0.00
  60                   0.00    209.04     90.58      0.00
  601                  0.00    302.62    131.13      0.00
  61                   0.00    302.62    131.13      0.00
  101                260.23    146.17     45.14      0.00
  103                182.48    146.14     44.69      0.00
  105                185.46    147.47     51.55      0.00
  107                 74.86    147.46     54.36      0.00
  109                317.02    146.14     54.53      0.00
  111                194.46    146.82     59.29      0.00
  113                 27.41    146.88     62.78      0.00
  115                 71.38    147.59     57.89      0.00
  117                161.26    150.64     59.38      0.00
  119                241.30    158.09     67.63      0.00
  120                  0.00    155.68     67.46      0.00
  121                 57.03    161.49     70.84      0.00
  123                  0.00    165.94     67.14      0.00
  125                 62.47    160.89     64.95      0.00
  127                 24.19    159.13     44.69      0.00
  129                  0.00    159.12     46.85      0.00
  131                 58.57    159.10     66.34      0.00
  139                  8.07    152.89     52.82      0.00
  141                 13.49    148.47     62.60      0.00
  143                  8.49    136.24     60.98      0.00
  145                 37.85    149.87     64.51      0.00
  147                 11.71    150.93     57.38      0.00
  149                 37.09    151.37     58.66      0.00
  151                197.94    155.72     52.96      0.00
  153                 60.51    155.82     38.83      0.00
  157                 70.95    155.71     61.79      0.00
  159                 56.61    152.44     63.45      0.00
  161                 21.65    150.23     63.36      0.00
  163                 12.91    149.78     62.73      0.00
  164                  0.00    149.78     62.73      0.00
  166                  3.56    149.78     65.77      0.00
  167                 19.95    147.96     66.28      0.00
  169                  0.00    147.96     66.28      0.00
  171                 53.90    146.91     65.39      0.00
  173                  0.00    146.89     65.38      0.00
  177                 79.69    146.59     60.05      0.00
  179                  0.00    146.56     60.04      0.00
  181                  0.00    146.63     60.07      0.00
  183                  0.00    146.56     58.74      0.00
  184                  0.00    145.31     56.03      0.00
  185                 35.14    145.89     56.28      0.00
  187                  0.00    146.55     58.09      0.00
  189                147.85    146.88     61.91      0.00
  191                112.20    146.79     52.77      0.00
  193                 97.69    146.88     55.85      0.00
  195                  0.00    146.96     56.96      0.00
  197                 23.34    146.79     53.64      0.00
  199                163.47    141.70     62.27      0.00
  201                 61.12    140.98     61.04      0.00
  203               4299.67    140.82     60.15      0.00
  204                  0.00    146.32     54.30      0.00
  205                 89.54    141.66     52.28      0.00
  206                  0.00    140.57     60.48      0.00
  207                 95.06    140.90     57.15      0.00
  208                  0.00    140.20     53.82      0.00
  209                  1.19    139.57     61.34      0.00
[...]
  219                 60.33    137.24     57.73      0.00
  225                 33.29    137.25     56.00      0.00
  229                 93.70    137.42     54.99     81.94
  231                 24.06    137.41     57.38      0.00
  237                 22.79    137.56     53.54     56.97
  239                 65.13    137.57     53.97     80.88
  241                  0.00    137.57     53.97      4.78
  243                  6.34    137.57     53.54      0.00
  247                102.75    137.58     51.81      4.78
  249                  0.00    137.58     51.81    209.32
  251                 35.27    137.60     46.62      4.78
  253                 79.60    137.82     44.12      4.78
  255                 58.97    137.88     48.05      4.78
  257                  0.00    151.36     58.22      0.00
  259                  0.00    150.92     54.56      0.00
  261                  0.00    149.31     64.70      0.00
  263                  0.00    149.14     64.62      0.00
  265                  0.00    147.42     63.88      0.00
  267                  0.00    145.78     54.07      0.00
  269                  0.00    146.19     63.35      0.00
  271                  0.00    145.67     60.52      0.00
  273                  0.00    139.34     56.91      0.00
  275                  0.00    138.49     55.67      0.00
  River           -13214.57    220.00      0.00      0.00  Reservoir
  Lake                 0.00    167.00      0.00      0.00  Reservoir
  1                 -660.54    147.06      6.57      0.00  Tank
  2                 -404.43    138.95      9.73      4.78  Tank
  3                  662.20    159.92     13.40      0.00  Tank
   
   
  Link Results at 23:55:00 hrs:
  ----------------------------------------------
                       Flow  Velocity  Headloss
  Link                  gpm       fps   /1000ft
  ----------------------------------------------
  20                -662.20      0.03      0.00
  40                 660.54      0.03      0.00
  50                 404.43      0.02      0.00
  60               13214.57      9.37      9.00
  101                  0.00      0.00      0.00
  103                152.91      0.24      0.02
  105               -430.24      1.22      0.53
  107                 16.35      0.05      0.00
  109                -41.56      0.07      0.00
  111               -379.40      1.08      0.42
  112                475.05      1.35      0.64
  113               -132.23      0.38      0.06
  114                112.64      0.72      0.32
  115                -63.43      0.40      0.11
  116                -48.81      0.14      0.01
  117                644.23      1.83      1.12
  119               -727.18      2.06      1.40
  120               1176.25      3.34      3.42
  121               1049.99      2.98      2.77
  122                367.02      2.34      2.85
  123               9657.81      4.38      1.68
  125              11349.56      5.15      2.26
  129               1263.95      0.90      0.13
  131                995.89      0.71      0.09
  133               -662.20      0.68      0.10
  135                307.91      0.22      0.01
  137                 62.42      0.10      0.00
  145                245.50      1.57      1.36
  147                236.90      1.51      1.27
  149               -387.50      2.47      3.16
  151               -378.45      2.42      3.02
  153                164.99      0.47      0.09
  155                205.33      0.58      0.14
  159               -217.81      0.62      0.15
  161               -257.33      1.64      1.48
  163               -136.99      0.39      0.06
  169                201.48      1.29      0.94
  171                331.28      0.94      0.33
  173               7893.13      3.58      1.15
  175               7817.52      3.55      1.13
  177               7757.19      3.52      1.12
  179               7477.97      3.39      1.04
  180                  3.80      0.01      0.00
  181                  3.80      0.01      0.00
  183               7248.14      3.29      0.98
  185                -21.26      0.14      0.01
  186                343.19      2.19      2.52
  187               6621.48      3.01      0.83
  189               5228.90      2.37      0.54
  191              -1335.15      0.95      0.15
  193              -1904.97      1.35      0.29
  195               -441.75      1.25      0.56
  197               -526.68      1.49      0.77
  199                133.86      0.38      0.06
  201                660.54      1.87      1.18
  202                607.89      3.88      7.27
  203                302.15      1.93      1.99
  204                607.89      1.72      1.01
  205                343.19      0.97      0.35
  207                168.29      0.48      0.09
  209                191.14      1.22      0.85
  211                605.41      1.72      1.00
  213                152.05      0.43      0.08
  215                 39.66      0.11      0.01
  217               -275.85      0.78      0.23
  219               -256.16      0.73      0.20
  221                256.16      1.64      1.47
  223                 -4.23      0.01      0.00
  225                 20.65      0.06      0.00
  229               5228.90      3.71      1.59
  231               4941.07      3.50      1.44
  233               5018.67      3.56      1.72
  235                113.62      0.32      0.05
  237                502.21      1.42      0.71
  238                382.04      1.08      0.43
  239                -18.86      0.05      0.00
  240                382.04      1.08      0.43
  241                382.04      1.08      0.43
  243                380.77      0.61      0.10
  245                319.80      0.51      0.08
  247                263.57      0.42      0.05
  249                128.98      0.21      0.01
  251                 60.33      0.13      0.01
  257                 33.29      0.09      0.00
  261                 35.87      0.23      0.04
  263                 24.06      0.07      0.00
  269                 48.32      0.14      0.01
  271                 81.89      0.52      0.18
  273                -56.37      0.16      0.01
  275                -41.60      0.12      0.01
  277                  6.34      0.02      0.00
  281                -47.94      0.20      0.02
  283                -79.90      0.23      0.02
  285                 14.98      0.04      0.00
  287               -165.68      0.68      0.22
  289                404.43      1.65      1.15
  291                 79.60      0.33      0.06
  293                100.19      0.64      0.26
  295                -64.91      0.18      0.02
  297                493.28      3.15      4.93
  299                237.02      1.51      1.27
  301                237.02      1.51      1.27
  303                256.26      1.64      1.47
  305                150.95      0.43      0.08
  307                407.21      1.16      0.48
  309                212.27      1.35      1.04
  311               -172.61      0.49      0.10
  313                477.34      1.35      0.64
  315              -1463.22      1.04      0.18
  317                123.87      0.79      0.38
  319                -10.25      0.03      0.00
  321               7460.42      3.39      1.04
  323               -142.73      0.40      0.07
  325                128.07      0.82      0.41
  329              13214.57      6.00      3.03
  330                  0.00      0.00      0.00
  333                 -0.00      0.00      0.00
  10                   0.00      0.00      0.00  Pump
  335              13214.57      0.00    -92.94  Pump
   
   
  Node Results at 24:00:00 hrs:
  --------------------------------------------------------
                     Demand      Head  Pressure  Chemical
  Node                  gpm        ft       psi      mg/L
  --------------------------------------------------------
  10                   0.00    147.46      0.20      0.00
  15                 662.83    123.60     39.69      0.00
  20                   0.00    159.94     13.40      0.00
  35                1340.44    147.90     58.67      0.00
  40                   0.00    146.98      6.54      0.00
  50                   0.00    138.81      9.67      4.78
  60                   0.00    209.11     90.61      0.00
  601                  0.00    303.09    131.33      0.00
  61                   0.00    303.09    131.33      0.00
  101                260.23    147.46     45.70      0.00
  103                182.48    147.43     45.25      0.00
  105                185.46    148.77     52.11      0.00
  107                 74.86    148.76     54.93      0.00
  109                317.02    147.43     55.09      0.00
  111                194.46    148.11     59.84      0.00
  113                 27.41    148.17     63.33      0.00
  115                 71.38    148.89     58.45      0.00
  117                161.26    151.96     59.95      0.00
  119                241.30    159.45     68.22      0.00
  120                  0.00    157.03     68.04      0.00
  121                 57.03    162.88     71.44      0.00
  123                  0.00    167.30     67.72      0.00
  125                 62.47    162.30     65.56      0.00
  127                 24.19    160.65     45.34      0.00
  129                  0.00    160.63     47.50      0.00
  131                 58.57    160.61     66.99      0.00
  139                  8.07    154.36     53.45      0.00
  141                 13.49    149.89     63.22      0.00
  143                  8.49    137.67     61.60      0.00
  145                 37.85    151.29     65.12      0.00
  147                 11.71    152.34     57.99      0.00
  149                 37.09    152.78     59.27      0.00
  151                197.94    157.10     53.56      0.00
  153                 60.51    157.20     39.43      0.00
  157                 70.95    157.05     62.37      0.00
  159                 56.61    153.75     64.02      0.00
  161                 21.65    151.52     63.92      0.00
  163                 12.91    151.07     63.29      0.00
  164                  0.00    151.07     63.29      0.00
  166                  3.56    151.07     66.32      0.00
  167                 19.95    149.23     66.83      0.00
  169                  0.00    149.23     66.83      0.00
  171                 53.90    148.17     65.94      0.00
  173                  0.00    148.15     65.93      0.00
  177                 79.69    147.88     60.61      0.00
  179                  0.00    147.86     60.60      0.00
  181                  0.00    147.91     60.62      0.00
  183                  0.00    147.86     59.30      0.00
  184                  0.00    146.51     56.55      0.00
  185                 35.14    147.13     56.82      0.00
  187                  0.00    147.82     58.64      0.00
  189                147.85    148.16     62.46      0.00
  191                112.20    148.07     53.33      0.00
  193                 97.69    148.17     56.40      0.00
  195                  0.00    148.24     57.52      0.00
  197                 23.34    148.07     54.19      0.00
  199                163.47    142.72     62.71      0.00
  201                 61.12    141.96     61.47      0.00
  203               4299.67    141.81     60.58      0.00
  204                  0.00    147.58     54.85      0.00
  205                 89.54    142.64     52.71      0.00
  206                  0.00    141.23     60.76      0.00
  207                 95.06    141.74     57.52      0.00
  208                  0.00    140.66     54.02      0.00
  209                  1.19    139.67     61.39      0.00
  211                 11.88    139.34     57.34      0.00
  213                 19.10    139.25     57.31      0.00
  215                126.30    139.05     57.22      0.00
  217                 33.18    139.03     57.64      0.00
  219                 56.61    139.02     58.50      0.00
  225                 31.24    139.03     56.77      0.00
  229                 87.93    138.83     55.61     71.37
  231                 22.58    138.83     57.99      0.00
  237                 21.39    138.85     54.10     58.49
  239                 61.12    138.76     54.49    115.84
  241                  0.00    138.76     54.49      4.78
  243                  5.95    138.76     54.06      0.00
  247                 96.42    138.75     52.32      4.78
  249                  0.00    138.75     52.32    212.14
  251                 33.10    138.74     47.12      4.78
  253                 74.69    138.68     44.49      4.78
  255                 55.33    138.74     48.42      4.78
  257                  0.00    153.92     59.33      0.00
  259                  0.00    153.48     55.67      0.00
  261                  0.00    151.91     65.82      0.00
  263                  0.00    151.74     65.75      0.00
  265                  0.00    149.82     64.92      0.00
  267                  0.00    148.21     55.12      0.00
  269                  0.00    148.57     64.38      0.00
  271                  0.00    147.98     61.52      0.00
  273                  0.00    142.65     58.34      0.00
  275                  0.00    141.95     57.18      0.00
  River           -13096.03    220.00      0.00      0.00  Reservoir
  Lake                 0.00    167.00      0.00      0.00  Reservoir
  1                  512.58    146.98      6.54      0.00  Tank
  2                  -95.27    138.81      9.67      4.78  Tank
  3                 2199.87    159.94     13.40      0.00  Tank
   
   
  Link Results at 24:00:00 hrs:
  ----------------------------------------------
                       Flow  Velocity  Headloss
  Link                  gpm       fps   /1000ft
  ----------------------------------------------
  20               -2199.87      0.09      0.00
  40                -512.58      0.02      0.00
  50                  95.27      0.00      0.00
  60               13096.03      9.29      8.85
  101                  0.00      0.00      0.00
  103                162.41      0.26      0.02
  105               -422.64      1.20      0.51
  107                 27.03      0.08      0.00
  109                -20.07      0.03      0.00
  111               -337.09      0.96      0.34
  112                488.52      1.39      0.67
  113                -99.78      0.28      0.04
  114                120.05      0.77      0.36
  115                -47.83      0.31      0.07
  116                 -7.14      0.02      0.00
  117                635.13      1.80      1.09
  119               -727.77      2.06      1.41
  120               1157.02      3.28      3.32
  121               1037.03      2.94      2.71
  122                367.15      2.34      2.86
  123               9780.03      4.44      1.72
  125              13096.03      5.94      2.95
  129               2891.82      2.05      0.62
  131               2607.91      1.85      0.51
  133              -2199.87      2.25      0.91
  135                383.84      0.27      0.01
  137                 58.57      0.09      0.00
  145                325.28      2.08      2.28
  147                317.21      2.02      2.18
  149               -671.32      4.28      8.73
  151               -662.83      4.23      8.53
  153                367.61      1.04      0.40
  155                405.47      1.15      0.48
  159               -417.18      1.18      0.50
  161               -454.27      2.90      4.24
  163               -160.93      0.46      0.09
  169                221.44      1.41      1.12
  171                491.27      1.39      0.68
  173               7890.44      3.58      1.15
  175               7819.49      3.55      1.13
  177               7762.88      3.52      1.12
  179               7488.95      3.40      1.05
  180                  3.56      0.01      0.00
  181                  3.56      0.01      0.00
  183               7262.27      3.30      0.99
  185                -19.95      0.13      0.01
  186                338.06      2.16      2.45
  187               6629.73      3.01      0.83
  189               4795.67      2.18      0.46
  191              -1780.17      1.26      0.25
  193              -1340.44      0.95      0.15
  195                576.43      1.64      0.91
  197                496.74      1.41      0.69
  199                -15.84      0.04      0.00
  201               -512.58      1.45      0.74
  202                555.91      3.55      6.16
  203                253.00      1.61      1.43
  204                555.91      1.58      0.85
  205                338.06      0.96      0.34
  207                268.84      0.76      0.22
  209                168.01      1.07      0.67
  211                612.60      1.74      1.02
  213                170.05      0.48      0.10
  215                108.81      0.31      0.04
  217               -248.85      0.71      0.19
  219               -252.28      0.72      0.20
  221                252.28      1.61      1.43
  223                 33.41      0.09      0.00
  225                 56.75      0.16      0.01
  229               4795.67      3.40      1.36
  231               4467.38      3.17      1.19
  233               4299.67      3.05      1.29
  235                164.82      0.47      0.09
  237                519.95      1.48      0.75
  238                642.72      1.82      1.12
  239                217.83      0.62      0.15
  240                642.72      1.82      1.12
  241                642.72      1.82      1.12
  243                641.53      1.02      0.27
  245                351.57      0.56      0.09
  247                247.33      0.39      0.05
  249                121.03      0.19      0.01
  251                 56.61      0.12      0.01
  257                 31.24      0.09      0.00
  261                 85.15      0.54      0.19
  263                 22.58      0.06      0.00
  269                278.08      0.79      0.24
  271                 25.36      0.16      0.02
  273                231.33      0.66      0.17
  275                 67.45      0.19      0.02
  277                  5.95      0.02      0.00
  281                 61.50      0.25      0.04
  283                102.77      0.29      0.04
  285                -62.13      0.18      0.02
  287                 27.21      0.11      0.01
  289                 95.27      0.39      0.08
  291                 74.69      0.31      0.05
  293                 -7.54      0.05      0.00
  295                 40.64      0.12      0.01
  297                487.14      3.11      4.82
  299                234.04      1.49      1.24
  301                234.04      1.49      1.24
  303                253.09      1.62      1.43
  305                147.99      0.42      0.07
  307                401.08      1.14      0.47
  309                210.21      1.34      1.02
  311               -101.41      0.29      0.04
  313                475.90      1.35      0.64
  315              -1916.87      1.36      0.29
  317                111.24      0.71      0.31
  319                 53.58      0.15      0.01
  321               7472.49      3.39      1.04
  323                106.59      0.30      0.04
  325                136.70      0.87      0.46
  329              13096.03      5.94      2.98
  330                  0.00      0.00      0.00
  333                 -0.00      0.00      0.00
  10                   0.00      0.00      0.00  Pump
  335              13096.03      0.00    -93.99  Pump
   
  Analysis ended Wed May 06 17:35:34 2020
