  Page 1                                    Wed May 06 17:38:25 2020

  ******************************************************************
  *                           E P A N E T                          *
  *                   Hydraulic and Water Quality                  *
  *                   Analysis for Pipe Networks                   *
  *                         Version 2.00.12                        *
  ******************************************************************
  
  Analysis begun Wed May 06 17:38:25 2020

   
  Hydraulic Status:
  -----------------------------------------------------------------------
     0:00:00: Balanced after 5 trials
     0:00:00: Reservoir River is emptying
     0:00:00: Reservoir Lake is closed
     0:00:00: Tank 1 is filling at 13.10 ft
     0:00:00: Tank 2 is emptying at 23.50 ft
     0:00:00: Tank 3 is filling at 29.00 ft
   
     0:05:00: Balanced after 2 trials
   
     0:10:00: Balanced after 2 trials
   
     0:15:00: Balanced after 2 trials
   
     0:20:00: Balanced after 2 trials
   
     0:25:00: Balanced after 2 trials
   
     0:30:00: Balanced after 2 trials
   
     0:35:00: Balanced after 2 trials
   
     0:40:00: Balanced after 2 trials
   
     0:45:00: Balanced after 2 trials
   
     0:50:00: Balanced after 2 trials
   
     0:55:00: Balanced after 2 trials
   
     1:00:00: Pump 10 changed by timer control
     1:00:00: Balanced after 7 trials
     1:00:00: Reservoir Lake is emptying
     1:00:00: Pump 10 changed from closed to open
   
     1:05:00: Balanced after 2 trials
   
     1:10:00: Balanced after 2 trials
   
     1:15:00: Balanced after 2 trials
   
     1:20:00: Balanced after 2 trials
   
     1:25:00: Balanced after 2 trials
   
     1:30:00: Balanced after 2 trials
   
     1:35:00: Balanced after 1 trials
   
     1:40:00: Balanced after 1 trials
   
     1:45:00: Balanced after 1 trials
   
     1:50:00: Balanced after 1 trials
   
     1:55:00: Balanced after 1 trials
   
     2:00:00: Balanced after 3 trials
     2:00:00: Tank 2 is filling at 22.08 ft
   
     2:05:00: Balanced after 1 trials
   
     2:10:00: Balanced after 1 trials
   
     2:15:00: Balanced after 1 trials
   
     2:20:00: Balanced after 1 trials
   
     2:25:00: Balanced after 1 trials
   
     2:30:00: Balanced after 1 trials
   
     2:35:00: Balanced after 1 trials
   
     2:40:00: Balanced after 1 trials
   
     2:45:00: Balanced after 1 trials
   
     2:50:00: Balanced after 1 trials
   
     2:55:00: Balanced after 1 trials
   
     3:00:00: Balanced after 2 trials
   
     3:05:00: Balanced after 1 trials
   
     3:10:00: Balanced after 1 trials
   
     3:15:00: Balanced after 1 trials
   
     3:20:00: Balanced after 1 trials
   
     3:25:00: Balanced after 1 trials
   
     3:30:00: Balanced after 1 trials
   
     3:35:00: Balanced after 1 trials
   
     3:40:00: Balanced after 1 trials
   
     3:45:00: Balanced after 1 trials
   
     3:48:07: Pump 335 changed by Tank 1 control
     3:48:07: Pipe 330 changed by Tank 1 control
     3:48:07: Balanced after 4 trials
     3:48:07: Tank 3 is emptying at 33.77 ft
     3:48:07: Pipe 330 changed from closed to open
     3:48:07: Pump 335 changed from open to closed
   
     3:50:00: Balanced after 1 trials
   
     3:55:00: Balanced after 2 trials
   
     4:00:00: Balanced after 3 trials
     4:00:00: Tank 3 is filling at 33.76 ft
   
     4:05:00: Balanced after 2 trials
   
     4:10:00: Balanced after 2 trials
   
     4:15:00: Balanced after 2 trials
   
     4:20:00: Balanced after 1 trials
   
     4:25:00: Balanced after 1 trials
   
     4:30:00: Balanced after 1 trials
   
     4:35:00: Balanced after 1 trials
   
     4:40:00: Balanced after 1 trials
   
     4:45:00: Balanced after 1 trials
   
     4:50:00: Balanced after 1 trials
   
     4:55:00: Balanced after 1 trials
   
     5:00:00: Balanced after 3 trials
     5:00:00: Tank 3 is emptying at 34.07 ft
   
     5:05:00: Balanced after 2 trials
   
     5:10:00: Balanced after 2 trials
   
     5:15:00: Balanced after 2 trials
   
     5:20:00: Balanced after 2 trials
   
     5:25:00: Balanced after 2 trials
   
     5:30:00: Balanced after 2 trials
   
     5:35:00: Balanced after 2 trials
   
     5:40:00: Balanced after 2 trials
   
     5:45:00: Balanced after 2 trials
   
     5:50:00: Balanced after 2 trials
   
     5:55:00: Balanced after 2 trials
   
     6:00:00: Balanced after 3 trials
     6:00:00: Tank 3 is filling at 33.97 ft
   
     6:05:00: Balanced after 1 trials
   
     6:10:00: Balanced after 1 trials
   
     6:15:00: Balanced after 1 trials
   
     6:20:00: Balanced after 1 trials
   
     6:25:00: Balanced after 1 trials
   
     6:30:00: Balanced after 1 trials
   
     6:35:00: Balanced after 1 trials
   
     6:40:00: Balanced after 1 trials
   
     6:45:00: Balanced after 1 trials
   
     6:50:00: Balanced after 1 trials
   
     6:55:00: Balanced after 1 trials
   
     7:00:00: Balanced after 3 trials
   
     7:05:00: Balanced after 1 trials
   
     7:10:00: Balanced after 1 trials
   
     7:15:00: Balanced after 1 trials
   
     7:20:00: Balanced after 1 trials
   
     7:25:00: Balanced after 1 trials
   
     7:30:00: Balanced after 1 trials
   
     7:35:00: Balanced after 1 trials
   
     7:40:00: Balanced after 1 trials
   
     7:45:00: Balanced after 1 trials
   
     7:50:00: Balanced after 1 trials
   
     7:55:00: Balanced after 1 trials
   
     8:00:00: Balanced after 3 trials
   
     8:05:00: Balanced after 1 trials
   
     8:10:00: Balanced after 1 trials
   
     8:15:00: Balanced after 1 trials
   
     8:20:00: Balanced after 1 trials
   
     8:25:00: Balanced after 1 trials
   
     8:30:00: Balanced after 1 trials
   
     8:35:00: Balanced after 1 trials
   
     8:40:00: Balanced after 1 trials
   
     8:45:00: Balanced after 1 trials
   
     8:50:00: Balanced after 1 trials
   
     8:55:00: Balanced after 1 trials
   
     9:00:00: Balanced after 3 trials
     9:00:00: Tank 1 is emptying at 22.19 ft
     9:00:00: Tank 2 is emptying at 27.44 ft
     9:00:00: Tank 3 is emptying at 35.04 ft
   
     9:05:00: Balanced after 1 trials
   
     9:10:00: Balanced after 1 trials
   
     9:15:00: Balanced after 1 trials
   
     9:20:00: Balanced after 1 trials
   
     9:25:00: Balanced after 1 trials
   
     9:30:00: Balanced after 1 trials
   
     9:35:00: Balanced after 1 trials
   
     9:40:00: Balanced after 1 trials
   
     9:45:00: Balanced after 1 trials
   
     9:50:00: Balanced after 1 trials
   
     9:55:00: Balanced after 1 trials
   
    10:00:00: Balanced after 3 trials
    10:00:00: Tank 1 is filling at 21.91 ft
    10:00:00: Tank 2 is filling at 27.29 ft
   
    10:05:00: Balanced after 2 trials
   
    10:10:00: Balanced after 2 trials
   
    10:15:00: Balanced after 1 trials
   
    10:20:00: Balanced after 1 trials
   
    10:25:00: Balanced after 1 trials
   
    10:30:00: Balanced after 1 trials
    10:30:00: Tank 1 is emptying at 21.92 ft
   
    10:35:00: Balanced after 1 trials
   
    10:40:00: Balanced after 1 trials
   
    10:45:00: Balanced after 1 trials
   
    10:50:00: Balanced after 1 trials
   
    10:55:00: Balanced after 1 trials
   
    11:00:00: Balanced after 3 trials
    11:00:00: Tank 1 is filling at 21.91 ft
   
    11:05:00: Balanced after 2 trials
   
    11:10:00: Balanced after 2 trials
   
    11:15:00: Balanced after 2 trials
   
    11:20:00: Balanced after 2 trials
   
    11:25:00: Balanced after 2 trials
   
    11:30:00: Balanced after 2 trials
   
    11:35:00: Balanced after 2 trials
   
    11:40:00: Balanced after 2 trials
   
    11:45:00: Balanced after 2 trials
   
    11:50:00: Balanced after 2 trials
   
    11:55:00: Balanced after 2 trials
   
    12:00:00: Balanced after 3 trials
   
    12:05:00: Balanced after 2 trials
   
    12:10:00: Balanced after 2 trials
   
    12:15:00: Balanced after 2 trials
   
    12:20:00: Balanced after 2 trials
   
    12:25:00: Balanced after 2 trials
   
    12:30:00: Balanced after 2 trials
   
    12:35:00: Balanced after 1 trials
   
    12:40:00: Balanced after 1 trials
   
    12:45:00: Balanced after 1 trials
   
    12:50:00: Balanced after 1 trials
   
    12:55:00: Balanced after 1 trials
   
    13:00:00: Balanced after 4 trials
    13:00:00: Tank 1 is emptying at 22.22 ft
    13:00:00: Tank 2 is emptying at 28.35 ft
   
    13:05:00: Balanced after 1 trials
   
    13:10:00: Balanced after 1 trials
   
    13:15:00: Balanced after 1 trials
   
    13:20:00: Balanced after 1 trials
   
    13:25:00: Balanced after 1 trials
   
    13:30:00: Balanced after 1 trials
   
    13:35:00: Balanced after 1 trials
   
    13:40:00: Balanced after 1 trials
   
    13:45:00: Balanced after 1 trials
   
    13:50:00: Balanced after 1 trials
   
    13:55:00: Balanced after 1 trials
   
    14:00:00: Balanced after 3 trials
   
    14:05:00: Balanced after 1 trials
   
    14:10:00: Balanced after 1 trials
   
    14:15:00: Balanced after 1 trials
   
    14:20:00: Balanced after 1 trials
   
    14:25:00: Balanced after 1 trials
   
    14:30:00: Balanced after 1 trials
   
    14:35:00: Balanced after 1 trials
   
    14:40:00: Balanced after 1 trials
   
    14:45:00: Balanced after 1 trials
   
    14:50:00: Balanced after 1 trials
   
    14:55:00: Balanced after 1 trials
   
    15:00:00: Pump 10 changed by timer control
    15:00:00: Balanced after 4 trials
    15:00:00: Reservoir Lake is closed
    15:00:00: Tank 2 is filling at 27.50 ft
    15:00:00: Pump 10 changed from open to closed
   
    15:05:00: Balanced after 2 trials
   
    15:10:00: Balanced after 2 trials
   
    15:15:00: Balanced after 2 trials
   
    15:20:00: Balanced after 2 trials
   
    15:25:00: Balanced after 2 trials
   
    15:30:00: Balanced after 2 trials
   
    15:35:00: Balanced after 2 trials
   
    15:40:00: Balanced after 2 trials
   
    15:45:00: Balanced after 2 trials
   
    15:50:00: Balanced after 2 trials
   
    15:55:00: Balanced after 2 trials
   
    16:00:00: Balanced after 4 trials
   
    16:05:00: Balanced after 2 trials
   
    16:10:00: Balanced after 2 trials
   
    16:15:00: Balanced after 2 trials
   
    16:20:00: Balanced after 2 trials
   
    16:25:00: Balanced after 2 trials
   
    16:30:00: Balanced after 2 trials
   
    16:35:00: Balanced after 2 trials
   
    16:40:00: Balanced after 2 trials
   
    16:45:00: Balanced after 2 trials
   
    16:50:00: Balanced after 2 trials
   
    16:55:00: Balanced after 2 trials
   
    17:00:00: Balanced after 4 trials
    17:00:00: Tank 2 is emptying at 28.76 ft
   
    17:05:00: Balanced after 1 trials
   
    17:10:00: Balanced after 1 trials
   
    17:15:00: Balanced after 1 trials
   
    17:20:00: Balanced after 1 trials
   
    17:25:00: Balanced after 1 trials
   
    17:30:00: Balanced after 1 trials
   
    17:35:00: Balanced after 1 trials
   
    17:40:00: Balanced after 1 trials
   
    17:45:00: Balanced after 1 trials
   
    17:50:00: Balanced after 1 trials
   
    17:55:00: Balanced after 1 trials
   
    18:00:00: Balanced after 4 trials
    18:00:00: Tank 2 is filling at 27.73 ft
   
    18:05:00: Balanced after 2 trials
   
    18:10:00: Balanced after 2 trials
   
    18:15:00: Balanced after 2 trials
   
    18:20:00: Balanced after 2 trials
   
    18:25:00: Balanced after 2 trials
   
    18:30:00: Balanced after 2 trials
   
    18:35:00: Balanced after 2 trials
   
    18:40:00: Balanced after 2 trials
   
    18:45:00: Balanced after 2 trials
   
    18:50:00: Balanced after 2 trials
   
    18:55:00: Balanced after 2 trials
   
    19:00:00: Balanced after 3 trials
    19:00:00: Tank 2 is emptying at 28.04 ft
   
    19:05:00: Balanced after 1 trials
   
    19:10:00: Balanced after 1 trials
   
    19:15:00: Balanced after 1 trials
   
    19:20:00: Balanced after 1 trials
   
    19:25:00: Balanced after 1 trials
   
    19:30:00: Balanced after 1 trials
   
    19:35:00: Balanced after 1 trials
   
    19:40:00: Balanced after 1 trials
   
    19:45:00: Balanced after 1 trials
   
    19:50:00: Balanced after 1 trials
   
    19:55:00: Balanced after 1 trials
   
    20:00:00: Balanced after 3 trials
   
    20:05:00: Balanced after 2 trials
   
    20:10:00: Balanced after 2 trials
   
    20:15:00: Balanced after 2 trials
   
    20:20:00: Balanced after 2 trials
   
    20:25:00: Balanced after 2 trials
   
    20:30:00: Balanced after 2 trials
   
    20:35:00: Balanced after 2 trials
   
    20:40:00: Balanced after 2 trials
   
    20:45:00: Balanced after 2 trials
   
    20:50:00: Balanced after 2 trials
   
    20:55:00: Balanced after 2 trials
   
    21:00:00: Balanced after 3 trials
   
    21:05:00: Balanced after 1 trials
   
    21:10:00: Balanced after 1 trials
   
    21:14:51: Pump 335 changed by Tank 1 control
    21:14:51: Pipe 330 changed by Tank 1 control
    21:14:51: Balanced after 5 trials
    21:14:51: Tank 1 is filling at 17.10 ft
    21:14:51: Tank 3 is filling at 29.85 ft
    21:14:51: Pipe 330 changed from open to closed
    21:14:51: Pump 335 changed from closed to open
   
    21:15:00: Balanced after 1 trials
   
    21:20:00: Balanced after 2 trials
   
    21:25:00: Balanced after 2 trials
   
    21:30:00: Balanced after 2 trials
   
    21:35:00: Balanced after 2 trials
   
    21:40:00: Balanced after 2 trials
   
    21:45:00: Balanced after 2 trials
   
    21:50:00: Balanced after 2 trials
   
    21:55:00: Balanced after 2 trials
   
    22:00:00: Balanced after 3 trials
    22:00:00: Tank 1 is emptying at 17.29 ft
   
    22:05:00: Balanced after 2 trials
   
    22:10:00: Balanced after 2 trials
   
    22:15:00: Balanced after 2 trials
   
    22:20:00: Balanced after 2 trials
   
    22:25:00: Balanced after 2 trials
   
    22:30:00: Balanced after 2 trials
   
    22:35:00: Balanced after 2 trials
   
    22:40:00: Balanced after 2 trials
   
    22:45:00: Balanced after 2 trials
   
    22:50:00: Balanced after 2 trials
   
    22:55:00: Balanced after 2 trials
   
    23:00:00: Balanced after 4 trials
   
    23:05:00: Balanced after 2 trials
   
    23:10:00: Balanced after 2 trials
   
    23:15:00: Balanced after 2 trials
   
    23:20:00: Balanced after 2 trials
   
    23:25:00: Balanced after 2 trials
   
    23:30:00: Balanced after 2 trials
   
    23:35:00: Balanced after 2 trials
   
    23:40:00: Balanced after 2 trials
   
    23:45:00: Balanced after 2 trials
   
    23:50:00: Balanced after 2 trials
   
    23:55:00: Balanced after 2 trials
   
    24:00:00: Balanced after 4 trials
    24:00:00: Tank 1 is filling at 15.66 ft
   
   
  Node Results at 0:00:00 hrs:
  --------------------------------------------------------
                     Demand      Head  Pressure  Chemical
  Node                  gpm        ft       psi      mg/L
  --------------------------------------------------------
  10                   0.00    146.06     -0.41      0.00
  15                 532.63    133.64     44.04      0.00
  20                   0.00    158.00     12.57      0.00
  35                1599.87    146.22     57.94      0.00
  40                   0.00    145.00      5.68      0.00
  50                   0.00    140.00     10.18      0.00
  60                   0.00    209.03     90.57      0.00
  601                  0.00    302.55    131.09      0.00
  61                   0.00    302.55    131.09      0.00
  101                250.73    146.06     45.09      0.00
  103                175.82    146.03     44.64      0.00
  105                178.69    147.34     51.49      0.00
  107                 72.12    147.34     54.31      0.00
  109                305.45    146.03     54.48      0.00
  111                187.36    146.62     59.20      0.00
  113                 26.41    146.65     62.68      0.00
  115                 68.77    147.42     57.81      0.00
  117                155.38    150.50     59.32      0.00
  119                232.49    157.91     67.55      0.00
  120                  0.00    155.51     67.38      0.00
  121                 54.95    161.29     70.75      0.00
  123                  0.00    165.74     67.05      0.00
  125                 60.19    160.67     64.85      0.00
  127                 23.31    158.84     44.56      0.00
  129                  0.00    158.83     46.72      0.00
  131                 56.43    158.81     66.21      0.00
  139                  7.77    154.37     53.46      0.00
  141                 13.00    151.22     63.79      0.00
  143                  8.18    143.03     63.92      0.00
  145                 36.47    152.13     65.48      0.00
  147                 11.29    152.83     58.21      0.00
  149                 35.73    153.13     59.42      0.00
  151                190.71    156.16     53.15      0.00
  153                 58.30    156.24     39.02      0.00
  157                 68.36    155.50     61.70      0.00
  159                 54.54    152.18     63.34      0.00
  161                 20.86    149.93     63.23      0.00
  163                 12.43    149.48     62.60      0.00
  164                  0.00    149.48     62.60      0.00
  166                  3.43    149.48     65.64      0.00
  167                 19.22    147.63     66.14      0.00
  169                  0.00    147.63     66.14      0.00
  171                 51.93    146.56     65.24      0.00
  173                  0.00    146.54     65.23      0.00
  177                 76.78    146.19     59.88      0.00
  179                  0.00    146.17     59.87      0.00
  181                  0.00    146.22     59.89      0.00
  183                  0.00    146.18     58.57      0.00
  184                  0.00    145.04     55.91      0.00
  185                 33.86    145.59     56.15      0.00
  187                  0.00    146.28     57.97      0.00
  189                142.45    146.58     61.78      0.00
  191                108.11    146.55     52.67      0.00
  193                 94.13    146.65     55.74      0.00
  195                  0.00    146.72     56.86      0.00
  197                 22.49    146.57     53.54      0.00
  199                157.50    141.58     62.21      0.00
  201                 58.89    140.88     61.00      0.00
  203               4248.33    140.73     60.11      0.00
  204                  0.00    146.04     54.18      0.00
  205                 86.28    141.54     52.23      0.00
  206                  0.00    140.57     60.48      0.00
  207                 91.59    140.84     57.12      0.00
  208                  0.00    140.28     53.85      0.00
  209                  1.15    139.76     61.42      0.00
  211                 11.44    139.59     57.45      0.00
  213                 18.40    139.52     57.42      0.00
  215                121.69    139.33     57.34      0.00
  217                 31.97    139.31     57.76      0.00
  219                 54.54    139.30     58.63      0.00
  225                 30.10    139.31     56.89      0.00
  229                 84.72    139.38     55.84      0.00
  231                 21.75    139.38     58.22      0.00
  237                 20.61    139.46     54.36      0.00
  239                 58.89    139.45     54.79      0.00
  241                  0.00    139.45     54.79      0.00
  243                  5.73    139.45     54.36      0.00
  247                 92.90    139.45     52.62      0.00
  249                  0.00    139.45     52.62      0.00
  251                 31.89    139.45     47.43      0.00
  253                 71.97    139.48     44.84      0.00
  255                 53.31    139.53     48.76      0.00
  257                  0.00    152.43     58.68      0.00
  259                  0.00    152.00     55.03      0.00
  261                  0.00    150.45     65.19      0.00
  263                  0.00    150.29     65.12      0.00
  265                  0.00    148.22     64.22      0.00
  267                  0.00    146.67     54.45      0.00
  269                  0.00    146.98     63.68      0.00
  271                  0.00    146.32     60.80      0.00
  273                  0.00    141.54     57.86      0.00
  275                  0.00    140.88     56.71      0.00
  River           -13148.58    220.00      0.00      0.00  Reservoir
  Lake                 0.00    167.00      0.00      0.00  Reservoir
  1                  600.14    145.00      5.68      0.00  Tank
  2                 -258.68    140.00     10.18      0.00  Tank
  3                 2402.79    158.00     12.57      0.00  Tank
   
   
  Link Results at 0:00:00 hrs:
  ----------------------------------------------
                       Flow  Velocity  Headloss
  Link                  gpm       fps   /1000ft
  ----------------------------------------------
  20               -2402.79      0.10      0.00
  40                -600.14      0.03      0.00
  50                 258.68      0.01      0.00
  60               13148.58      9.32      8.92
  101                  0.00      0.00      0.00
  103                168.14      0.27      0.02
  105               -418.87      1.19      0.51
  107                 33.48      0.09      0.00
  109                 -7.69      0.01      0.00
  111               -313.13      0.89      0.30
  112                496.69      1.41      0.69
  113                -74.55      0.21      0.02
  114                124.41      0.79      0.38
  115                -38.65      0.25      0.04
  116                 23.44      0.07      0.00
  117                631.04      1.79      1.08
  119               -728.52      2.07      1.41
  120               1150.20      3.26      3.28
  121               1030.75      2.92      2.68
  122                364.73      2.33      2.82
  123               9710.74      4.41      1.69
  125              13148.58      5.97      2.97
  129               3018.16      2.14      0.67
  131               2752.96      1.95      0.57
  133              -2402.79      2.45      1.07
  135                326.86      0.23      0.01
  137                 56.43      0.09      0.00
  145                270.43      1.73      1.62
  147                262.65      1.68      1.54
  149               -540.81      3.45      5.85
  151               -532.63      3.40      5.69
  153                291.16      0.83      0.26
  155                327.63      0.93      0.32
  159               -338.92      0.96      0.34
  161               -374.65      2.39      2.96
  163               -146.71      0.42      0.07
  169                205.01      1.31      0.97
  171                418.66      1.19      0.51
  173               7909.38      3.59      1.16
  175               7841.02      3.56      1.14
  177               7786.48      3.53      1.12
  179               7515.95      3.41      1.05
  180                  3.43      0.01      0.00
  181                  3.43      0.01      0.00
  183               7293.37      3.31      1.00
  185                -19.22      0.12      0.01
  186                336.39      2.15      2.43
  187               6662.62      3.02      0.84
  189               4568.45      2.07      0.42
  191              -2042.24      1.45      0.33
  193              -1599.87      1.13      0.21
  195                587.28      1.67      0.95
  197                510.50      1.45      0.73
  199                -89.64      0.25      0.03
  201               -600.14      1.70      0.98
  202                526.51      3.36      5.57
  203                223.98      1.43      1.14
  204                526.51      1.49      0.77
  205                336.39      0.95      0.34
  207                313.62      0.89      0.30
  209                156.29      1.00      0.59
  211                611.52      1.73      1.02
  213                180.10      0.51      0.11
  215                145.75      0.41      0.07
  217               -239.96      0.68      0.18
  219               -249.68      0.71      0.19
  221                249.68      1.59      1.40
  223                 48.25      0.14      0.01
  225                 70.75      0.20      0.02
  229               4568.45      3.24      1.24
  231               4290.25      3.04      1.11
  233               4248.33      3.01      1.26
  235                120.70      0.34      0.05
  237                453.02      1.29      0.58
  238                452.38      1.28      0.58
  239                 90.95      0.26      0.03
  240                452.38      1.28      0.58
  241                452.38      1.28      0.58
  243                451.23      0.72      0.14
  245                303.81      0.48      0.07
  247                238.30      0.38      0.04
  249                116.61      0.19      0.01
  251                 54.54      0.11      0.01
  257                 30.10      0.09      0.00
  261                 47.11      0.30      0.06
  263                 21.75      0.06      0.00
  269                135.98      0.39      0.06
  271                 59.36      0.38      0.10
  273                 56.01      0.16      0.01
  275                  2.48      0.01      0.00
  277                  5.73      0.02      0.00
  281                 -3.25      0.01      0.00
  283                 -5.36      0.02      0.00
  285                -13.86      0.04      0.00
  287                -82.29      0.34      0.06
  289                258.68      1.06      0.50
  291                 71.97      0.29      0.05
  293                 51.11      0.33      0.07
  295                -19.22      0.05      0.00
  297                484.18      3.09      4.77
  299                232.62      1.48      1.23
  301                232.62      1.48      1.23
  303                251.56      1.61      1.42
  305                146.86      0.42      0.07
  307                398.42      1.13      0.46
  309                206.72      1.32      0.99
  311                -60.97      0.17      0.01
  313                466.62      1.32      0.62
  315              -2187.15      1.55      0.37
  317                107.92      0.69      0.30
  319                 12.78      0.04      0.00
  321               7500.08      3.40      1.05
  323                -16.96      0.05      0.00
  325                144.91      0.92      0.51
  329              13148.58      5.97      3.01
  330                  0.00      0.00      0.00
  333                 -0.00      0.00      0.00
  10                   0.00      0.00      0.00  Pump
  335              13148.58      0.00    -93.52  Pump
   
   
  Node Results at 0:05:00 hrs:
  --------------------------------------------------------
                     Demand      Head  Pressure  Chemical
  Node                  gpm        ft       psi      mg/L
  --------------------------------------------------------
  10                   0.00    146.11     -0.39      0.00
  15                 532.63    133.71     44.07      0.00
  20                   0.00    158.08     12.60      0.00
  35                1599.87    146.27     57.96      0.00
  40                   0.00    145.07      5.71      0.00
  50                   0.00    139.91     10.14      0.00
  60                   0.00    209.03     90.57      0.00
  601                  0.00    302.57    131.10      0.00
  61                   0.00    302.57    131.10      0.00
  101                250.73    146.11     45.11      0.00
  103                175.82    146.08     44.66      0.00
  105                178.69    147.40     51.52      0.00
  107                 72.12    147.39     54.33      0.00
  109                305.45    146.08     54.50      0.00
  111                187.36    146.67     59.22      0.00
  113                 26.41    146.70     62.70      0.00
  115                 68.77    147.47     57.83      0.00
  117                155.38    150.55     59.34      0.00
  119                232.49    157.97     67.58      0.00
  120                  0.00    155.57     67.41      0.00
  121                 54.95    161.35     70.78      0.00
  123                  0.00    165.80     67.08      0.00
  125                 60.19    160.73     64.88      0.00
  127                 23.31    158.91     44.59      0.00
  129                  0.00    158.90     46.75      0.00
  131                 56.43    158.88     66.24      0.00
  139                  7.77    154.44     53.49      0.00
  141                 13.00    151.29     63.82      0.00
  143                  8.18    143.09     63.95      0.00
  145                 36.47    152.19     65.51      0.00
  147                 11.29    152.90     58.23      0.00
  149                 35.73    153.20     59.45      0.00
  151                190.71    156.22     53.17      0.00
  153                 58.30    156.30     39.04      0.00
  157                 68.36    155.56     61.73      0.00
  159                 54.54    152.24     63.36      0.00
  161                 20.86    149.99     63.26      0.00
  163                 12.43    149.53     62.63      0.00
  164                  0.00    149.53     62.63      0.00
  166                  3.43    149.53     65.66      0.00
  167                 19.22    147.68     66.16      0.00
  169                  0.00    147.68     66.16      0.00
  171                 51.93    146.61     65.26      0.00
  173                  0.00    146.59     65.25      0.00
  177                 76.78    146.24     59.90      0.00
  179                  0.00    146.22     59.89      0.00
  181                  0.00    146.27     59.91      0.00
  183                  0.00    146.23     58.59      0.00
  184                  0.00    145.08     55.93      0.00
  185                 33.86    145.64     56.17      0.00
  187                  0.00    146.33     57.99      0.00
  189                142.45    146.63     61.80      0.00
  191                108.11    146.61     52.69      0.00
  193                 94.13    146.70     55.77      0.00
  195                  0.00    146.77     56.88      0.00
  197                 22.49    146.62     53.56      0.00
  199                157.50    141.61     62.22      0.00
  201                 58.89    140.91     61.01      0.00
  203               4248.33    140.76     60.12      0.00
  204                  0.00    146.09     54.20      0.00
  205                 86.28    141.57     52.24      0.00
  206                  0.00    140.59     60.48      0.00
  207                 91.59    140.86     57.13      0.00
  208                  0.00    140.28     53.85      0.00
  209                  1.15    139.74     61.42      0.00
  211                 11.44    139.56     57.44      0.00
  213                 18.40    139.49     57.41      0.00
  215                121.69    139.30     57.33      0.00
  217                 31.97    139.28     57.75      0.00
  219                 54.54    139.27     58.61      0.00
  225                 30.10    139.28     56.88      0.00
  229                 84.72    139.34     55.83      0.00
  231                 21.75    139.34     58.21      0.00
  237                 20.61    139.41     54.34      0.00
  239                 58.89    139.41     54.77      0.00
  241                  0.00    139.41     54.77      0.00
  243                  5.73    139.41     54.34      0.00
  247                 92.90    139.41     52.61      0.00
  249                  0.00    139.41     52.61      0.00
  251                 31.89    139.41     47.41      0.00
  253                 71.97    139.43     44.81      0.00
  255                 53.31    139.48     48.74      0.00
  257                  0.00    152.49     58.71      0.00
  259                  0.00    152.06     55.06      0.00
  261                  0.00    150.50     65.21      0.00
  263                  0.00    150.34     65.14      0.00
  265                  0.00    148.27     64.25      0.00
  267                  0.00    146.72     54.47      0.00
  269                  0.00    147.03     63.71      0.00
  271                  0.00    146.37     60.82      0.00
  273                  0.00    141.57     57.88      0.00
  275                  0.00    140.91     56.72      0.00
  River           -13146.53    220.00      0.00      0.00  Reservoir
  Lake                 0.00    167.00      0.00      0.00  Reservoir
  1                  594.68    145.07      5.71      0.00  Tank
  2                 -248.89    139.91     10.14      0.00  Tank
  3                 2396.41    158.08     12.60      0.00  Tank
   
   
  Link Results at 0:05:00 hrs:
  ----------------------------------------------
                       Flow  Velocity  Headloss
  Link                  gpm       fps   /1000ft
  ----------------------------------------------
  20               -2396.41      0.10      0.00
  40                -594.68      0.02      0.00
  50                 248.89      0.01      0.00
  60               13146.53      9.32      8.91
  101                  0.00      0.00      0.00
  103                168.27      0.27      0.02
  105               -419.01      1.19      0.51
  107                 33.56      0.10      0.00
  109                 -7.55      0.01      0.00
  111               -313.00      0.89      0.29
  112                496.99      1.41      0.69
  113                -74.33      0.21      0.02
  114                124.50      0.79      0.39
  115                -38.56      0.25      0.04
  116                 23.76      0.07      0.00
  117                631.26      1.79      1.08
  119               -728.83      2.07      1.41
  120               1150.59      3.26      3.29
  121               1031.11      2.93      2.68
  122                364.87      2.33      2.82
  123               9714.71      4.41      1.69
  125              13146.53      5.97      2.97
  129               3012.00      2.14      0.67
  131               2746.72      1.95      0.56
  133              -2396.41      2.45      1.06
  135                327.00      0.23      0.01
  137                 56.43      0.09      0.00
  145                270.57      1.73      1.62
  147                262.79      1.68      1.54
  149               -540.81      3.45      5.85
  151               -532.63      3.40      5.69
  153                291.02      0.83      0.26
  155                327.50      0.93      0.32
  159               -338.78      0.96      0.34
  161               -374.51      2.39      2.96
  163               -146.79      0.42      0.07
  169                205.09      1.31      0.97
  171                418.44      1.19      0.50
  173               7913.19      3.59      1.16
  175               7844.82      3.56      1.14
  177               7790.28      3.54      1.13
  179               7519.70      3.41      1.05
  180                  3.43      0.01      0.00
  181                  3.43      0.01      0.00
  183               7297.13      3.31      1.00
  185                -19.22      0.12      0.01
  186                336.94      2.15      2.44
  187               6666.52      3.03      0.84
  189               4577.03      2.08      0.42
  191              -2037.56      1.45      0.32
  193              -1599.87      1.13      0.21
  195                582.65      1.65      0.93
  197                505.86      1.44      0.72
  199                -88.82      0.25      0.03
  201               -594.68      1.69      0.97
  202                527.72      3.37      5.59
  203                224.64      1.43      1.15
  204                527.72      1.50      0.78
  205                336.94      0.96      0.34
  207                313.46      0.89      0.30
  209                156.49      1.00      0.59
  211                611.39      1.73      1.02
  213                180.45      0.51      0.11
  215                145.96      0.41      0.07
  217               -240.09      0.68      0.18
  219               -249.73      0.71      0.19
  221                249.73      1.59      1.40
  223                 48.47      0.14      0.01
  225                 70.96      0.20      0.02
  229               4577.03      3.25      1.25
  231               4297.23      3.05      1.11
  233               4248.33      3.01      1.26
  235                122.30      0.35      0.05
  237                455.70      1.29      0.59
  238                462.17      1.31      0.61
  239                 98.06      0.28      0.03
  240                462.17      1.31      0.61
  241                462.17      1.31      0.61
  243                461.02      0.74      0.15
  245                305.56      0.49      0.07
  247                238.30      0.38      0.04
  249                116.61      0.19      0.01
  251                 54.54      0.11      0.01
  257                 30.10      0.09      0.00
  261                 48.86      0.31      0.07
  263                 21.75      0.06      0.00
  269                144.01      0.41      0.07
  271                 57.61      0.37      0.09
  273                 65.80      0.19      0.02
  275                  6.50      0.02      0.00
  277                  5.73      0.02      0.00
  281                  0.78      0.00      0.00
  283                  0.41      0.00      0.00
  285                -15.97      0.05      0.00
  287                -76.16      0.31      0.05
  289                248.89      1.02      0.47
  291                 71.97      0.29      0.05
  293                 47.45      0.30      0.06
  295                -15.56      0.04      0.00
  297                484.35      3.09      4.77
  299                232.70      1.49      1.23
  301                232.70      1.49      1.23
  303                251.65      1.61      1.42
  305                146.91      0.42      0.07
  307                398.56      1.13      0.46
  309                206.70      1.32      0.99
  311                -60.74      0.17      0.01
  313                466.44      1.32      0.62
  315              -2182.52      1.55      0.37
  317                108.05      0.69      0.30
  319                 14.25      0.04      0.00
  321               7503.83      3.41      1.05
  323                 -9.99      0.03      0.00
  325                144.95      0.93      0.51
  329              13146.53      5.97      3.01
  330                  0.00      0.00      0.00
  333                 -0.00      0.00      0.00
  10                   0.00      0.00      0.00  Pump
  335              13146.54      0.00    -93.54  Pump
   
   
  Node Results at 0:10:00 hrs:
  --------------------------------------------------------
                     Demand      Head  Pressure  Chemical
  Node                  gpm        ft       psi      mg/L
  --------------------------------------------------------
  10                   0.00    146.16     -0.36      0.00
  15                 532.63    133.77     44.10      0.00
  20                   0.00    158.15     12.63      0.00
  35                1599.87    146.32     57.98      0.00
  40                   0.00    145.14      5.74      0.00
  50                   0.00    139.83     10.11      0.00
  60                   0.00    209.03     90.57      0.00
  601                  0.00    302.59    131.11      0.00
  61                   0.00    302.59    131.11      0.00
  101                250.73    146.16     45.13      0.00
  103                175.82    146.13     44.69      0.00
  105                178.69    147.45     51.54      0.00
  107                 72.12    147.44     54.35      0.00
  109                305.45    146.13     54.52      0.00
  111                187.36    146.72     59.24      0.00
  113                 26.41    146.75     62.72      0.00
  115                 68.77    147.53     57.86      0.00
  117                155.38    150.60     59.36      0.00
  119                232.49    158.03     67.61      0.00
  120                  0.00    155.62     67.43      0.00
  121                 54.95    161.42     70.81      0.00
  123                  0.00    165.86     67.10      0.00
  125                 60.19    160.80     64.91      0.00
  127                 23.31    158.98     44.62      0.00
  129                  0.00    158.97     46.78      0.00
  131                 56.43    158.95     66.27      0.00
  139                  7.77    154.51     53.51      0.00
  141                 13.00    151.35     63.85      0.00
  143                  8.18    143.16     63.98      0.00
  145                 36.47    152.25     65.54      0.00
  147                 11.29    152.96     58.26      0.00
  149                 35.73    153.26     59.47      0.00
  151                190.71    156.28     53.20      0.00
  153                 58.30    156.36     39.07      0.00
  157                 68.36    155.61     61.75      0.00
  159                 54.54    152.29     63.39      0.00
  161                 20.86    150.04     63.28      0.00
  163                 12.43    149.59     62.65      0.00
  164                  0.00    149.59     62.65      0.00
  166                  3.43    149.59     65.68      0.00
  167                 19.22    147.73     66.18      0.00
  169                  0.00    147.74     66.18      0.00
  171                 51.93    146.66     65.28      0.00
  173                  0.00    146.64     65.27      0.00
  177                 76.78    146.29     59.92      0.00
  179                  0.00    146.27     59.91      0.00
  181                  0.00    146.32     59.94      0.00
  183                  0.00    146.28     58.62      0.00
  184                  0.00    145.13     55.95      0.00
  185                 33.86    145.69     56.19      0.00
  187                  0.00    146.38     58.01      0.00
  189                142.45    146.68     61.82      0.00
  191                108.11    146.66     52.71      0.00
  193                 94.13    146.75     55.79      0.00
  195                  0.00    146.82     56.90      0.00
  197                 22.49    146.67     53.59      0.00
  199                157.50    141.64     62.24      0.00
  201                 58.89    140.94     61.03      0.00
  203               4248.33    140.79     60.14      0.00
  204                  0.00    146.14     54.22      0.00
  205                 86.28    141.60     52.26      0.00
  206                  0.00    140.60     60.49      0.00
  207                 91.59    140.88     57.14      0.00
  208                  0.00    140.28     53.85      0.00
  209                  1.15    139.72     61.41      0.00
  211                 11.44    139.53     57.43      0.00
  213                 18.40    139.46     57.40      0.00
  215                121.69    139.28     57.31      0.00
  217                 31.97    139.26     57.74      0.00
  219                 54.54    139.24     58.60      0.00
  225                 30.10    139.25     56.87      0.00
  229                 84.72    139.30     55.81      0.00
  231                 21.75    139.30     58.19      0.00
  237                 20.61    139.37     54.32      0.00
  239                 58.89    139.36     54.75      0.00
  241                  0.00    139.36     54.75      0.00
  243                  5.73    139.36     54.32      0.00
  247                 92.90    139.36     52.59      0.00
  249                  0.00    139.36     52.59      0.00
  251                 31.89    139.36     47.39      0.00
  253                 71.97    139.37     44.79      0.00
  255                 53.31    139.42     48.71      0.00
  257                  0.00    152.55     58.73      0.00
  259                  0.00    152.12     55.08      0.00
  261                  0.00    150.56     65.24      0.00
  263                  0.00    150.40     65.17      0.00
  265                  0.00    148.32     64.27      0.00
  267                  0.00    146.77     54.49      0.00
  269                  0.00    147.08     63.73      0.00
  271                  0.00    146.42     60.84      0.00
  273                  0.00    141.60     57.89      0.00
  275                  0.00    140.94     56.74      0.00
  River           -13144.49    220.00      0.00      0.00  Reservoir
  Lake                 0.00    167.00      0.00      0.00  Reservoir
  1                  589.40    145.14      5.74      0.00  Tank
  2                 -239.35    139.83     10.11      0.00  Tank
  3                 2390.10    158.15     12.63      0.00  Tank
   
   
  Link Results at 0:10:00 hrs:
  ----------------------------------------------
                       Flow  Velocity  Headloss
  Link                  gpm       fps   /1000ft
  ----------------------------------------------
  20               -2390.10      0.10      0.00
  40                -589.40      0.02      0.00
  50                 239.35      0.01      0.00
  60               13144.49      9.32      8.91
  101                  0.00      0.00      0.00
  103                168.41      0.27      0.02
  105               -419.14      1.19      0.51
  107                 33.65      0.10      0.00
  109                 -7.42      0.01      0.00
  111               -312.87      0.89      0.29
  112                497.29      1.41      0.70
  113                -74.12      0.21      0.02
  114                124.60      0.80      0.39
  115                -38.48      0.25      0.04
  116                 24.07      0.07      0.00
  117                631.48      1.79      1.08
  119               -729.13      2.07      1.41
  120               1150.98      3.27      3.29
  121               1031.47      2.93      2.68
  122                365.00      2.33      2.83
  123               9718.62      4.41      1.70
  125              13144.49      5.97      2.97
  129               3005.91      2.13      0.66
  131               2740.55      1.94      0.56
  133              -2390.10      2.44      1.06
  135                327.13      0.23      0.01
  137                 56.43      0.09      0.00
  145                270.70      1.73      1.62
  147                262.93      1.68      1.54
  149               -540.81      3.45      5.85
  151               -532.63      3.40      5.69
  153                290.89      0.83      0.26
  155                327.36      0.93      0.32
  159               -338.65      0.96      0.34
  161               -374.38      2.39      2.96
  163               -146.86      0.42      0.07
  169                205.17      1.31      0.97
  171                418.23      1.19      0.50
  173               7916.92      3.59      1.16
  175               7848.56      3.56      1.14
  177               7794.02      3.54      1.13
  179               7523.39      3.41      1.06
  180                  3.43      0.01      0.00
  181                  3.43      0.01      0.00
  183               7300.84      3.31      1.00
  185                -19.22      0.12      0.01
  186                337.48      2.15      2.44
  187               6670.35      3.03      0.84
  189               4585.39      2.08      0.42
  191              -2033.03      1.44      0.32
  193              -1599.87      1.13      0.21
  195                578.16      1.64      0.92
  197                501.38      1.42      0.71
  199                -88.02      0.25      0.03
  201               -589.40      1.67      0.95
  202                528.90      3.38      5.61
  203                225.28      1.44      1.16
  204                528.90      1.50      0.78
  205                337.48      0.96      0.34
  207                313.30      0.89      0.30
  209                156.69      1.00      0.59
  211                611.26      1.73      1.02
  213                180.79      0.51      0.11
  215                146.18      0.41      0.07
  217               -240.22      0.68      0.18
  219               -249.78      0.71      0.19
  221                249.78      1.59      1.40
  223                 48.68      0.14      0.01
  225                 71.18      0.20      0.02
  229               4585.39      3.25      1.25
  231               4303.99      3.05      1.11
  233               4248.33      3.01      1.26
  235                123.90      0.35      0.05
  237                458.37      1.30      0.60
  238                471.71      1.34      0.63
  239                104.94      0.30      0.04
  240                471.71      1.34      0.63
  241                471.71      1.34      0.63
  243                470.56      0.75      0.15
  245                307.31      0.49      0.07
  247                238.30      0.38      0.04
  249                116.61      0.19      0.01
  251                 54.54      0.11      0.01
  257                 30.10      0.09      0.00
  261                 50.61      0.32      0.07
  263                 21.75      0.06      0.00
  269                151.80      0.43      0.08
  271                 55.86      0.36      0.09
  273                 75.34      0.21      0.02
  275                  9.87      0.03      0.00
  277                  5.73      0.02      0.00
  281                  4.14      0.02      0.00
  283                  6.59      0.02      0.00
  285                -18.58      0.05      0.00
  287                -70.18      0.29      0.04
  289                239.35      0.98      0.44
  291                 71.97      0.29      0.05
  293                 43.88      0.28      0.06
  295                -11.99      0.03      0.00
  297                484.52      3.09      4.77
  299                232.78      1.49      1.23
  301                232.78      1.49      1.23
  303                251.74      1.61      1.42
  305                146.96      0.42      0.07
  307                398.70      1.13      0.46
  309                206.68      1.32      0.99
  311                -60.50      0.17      0.01
  313                466.27      1.32      0.62
  315              -2178.03      1.54      0.37
  317                108.16      0.69      0.30
  319                 15.74      0.04      0.00
  321               7507.52      3.41      1.05
  323                 -3.22      0.01      0.00
  325                145.00      0.93      0.51
  329              13144.49      5.97      3.01
  330                  0.00      0.00      0.00
  333                 -0.00      0.00      0.00
  10                   0.00      0.00      0.00  Pump
  335              13144.49      0.00    -93.56  Pump
   
   
  Node Results at 0:15:00 hrs:
  --------------------------------------------------------
                     Demand      Head  Pressure  Chemical
  Node                  gpm        ft       psi      mg/L
  --------------------------------------------------------
  10                   0.00    146.21     -0.34      0.00
  15                 532.63    133.84     44.13      0.00
  20                   0.00    158.23     12.66      0.00
  35                1599.87    146.37     58.00      0.00
  40                   0.00    145.21      5.77      0.00
  50                   0.00    139.75     10.07      0.00
  60                   0.00    209.03     90.57      0.00
  601                  0.00    302.61    131.12      0.00
  61                   0.00    302.61    131.12      0.00
  101                250.73    146.21     45.16      0.00
  103                175.82    146.18     44.71      0.00
  105                178.69    147.50     51.56      0.00
  107                 72.12    147.49     54.38      0.00
  109                305.45    146.18     54.55      0.00
  111                187.36    146.77     59.26      0.00
  113                 26.41    146.81     62.74      0.00
  115                 68.77    147.58     57.88      0.00
  117                155.38    150.66     59.39      0.00
  119                232.49    158.08     67.63      0.00
  120                  0.00    155.68     67.46      0.00
  121                 54.95    161.48     70.83      0.00
  123                  0.00    165.92     67.13      0.00
  125                 60.19    160.86     64.93      0.00
  127                 23.31    159.05     44.65      0.00
  129                  0.00    159.04     46.82      0.00
  131                 56.43    159.02     66.31      0.00
  139                  7.77    154.57     53.54      0.00
  141                 13.00    151.42     63.88      0.00
  143                  8.18    143.22     64.01      0.00
  145                 36.47    152.32     65.57      0.00
  147                 11.29    153.02     58.29      0.00
  149                 35.73    153.32     59.50      0.00
  151                190.71    156.34     53.23      0.00
  153                 58.30    156.43     39.09      0.00
  157                 68.36    155.67     61.78      0.00
  159                 54.54    152.35     63.41      0.00
  161                 20.86    150.09     63.30      0.00
  163                 12.43    149.64     62.67      0.00
  164                  0.00    149.64     62.67      0.00
  166                  3.43    149.64     65.70      0.00
  167                 19.22    147.78     66.20      0.00
  169                  0.00    147.79     66.20      0.00
  171                 51.93    146.71     65.30      0.00
  173                  0.00    146.69     65.29      0.00
  177                 76.78    146.35     59.95      0.00
  179                  0.00    146.33     59.94      0.00
  181                  0.00    146.37     59.96      0.00
  183                  0.00    146.33     58.64      0.00
  184                  0.00    145.18     55.97      0.00
  185                 33.86    145.74     56.22      0.00
  187                  0.00    146.43     58.03      0.00
  189                142.45    146.73     61.84      0.00
  191                108.11    146.71     52.74      0.00
  193                 94.13    146.80     55.81      0.00
  195                  0.00    146.87     56.92      0.00
  197                 22.49    146.72     53.61      0.00
  199                157.50    141.67     62.25      0.00
  201                 58.89    140.97     61.04      0.00
  203               4248.33    140.82     60.15      0.00
  204                  0.00    146.19     54.24      0.00
  205                 86.28    141.63     52.27      0.00
  206                  0.00    140.61     60.49      0.00
  207                 91.59    140.91     57.16      0.00
  208                  0.00    140.28     53.85      0.00
  209                  1.15    139.70     61.40      0.00
  211                 11.44    139.51     57.42      0.00
  213                 18.40    139.44     57.38      0.00
  215                121.69    139.25     57.30      0.00
  217                 31.97    139.23     57.73      0.00
  219                 54.54    139.22     58.59      0.00
  225                 30.10    139.22     56.86      0.00
  229                 84.72    139.27     55.79      0.00
  231                 21.75    139.26     58.18      0.00
  237                 20.61    139.33     54.31      0.00
  239                 58.89    139.32     54.73      0.00
  241                  0.00    139.32     54.73      0.00
  243                  5.73    139.32     54.30      0.00
  247                 92.90    139.32     52.57      0.00
  249                  0.00    139.32     52.57      0.00
  251                 31.89    139.32     47.37      0.00
  253                 71.97    139.32     44.77      0.00
  255                 53.31    139.37     48.69      0.00
  257                  0.00    152.60     58.76      0.00
  259                  0.00    152.17     55.10      0.00
  261                  0.00    150.61     65.26      0.00
  263                  0.00    150.45     65.19      0.00
  265                  0.00    148.37     64.29      0.00
  267                  0.00    146.82     54.52      0.00
  269                  0.00    147.13     63.75      0.00
  271                  0.00    146.47     60.86      0.00
  273                  0.00    141.63     57.90      0.00
  275                  0.00    140.97     56.75      0.00
  River           -13142.45    220.00      0.00      0.00  Reservoir
  Lake                 0.00    167.00      0.00      0.00  Reservoir
  1                  584.29    145.21      5.77      0.00  Tank
  2                 -230.05    139.75     10.07      0.00  Tank
  3                 2383.87    158.23     12.66      0.00  Tank
   
   
  Link Results at 0:15:00 hrs:
  ----------------------------------------------
                       Flow  Velocity  Headloss
  Link                  gpm       fps   /1000ft
  ----------------------------------------------
  20               -2383.87      0.10      0.00
  40                -584.29      0.02      0.00
  50                 230.05      0.01      0.00
  60               13142.45      9.32      8.91
  101                  0.00      0.00      0.00
  103                168.54      0.27      0.02
  105               -419.27      1.19      0.51
  107                 33.73      0.10      0.00
  109                 -7.29      0.01      0.00
  111               -312.74      0.89      0.29
  112                497.58      1.41      0.70
  113                -73.90      0.21      0.02
  114                124.69      0.80      0.39
  115                -38.39      0.25      0.04
  116                 24.37      0.07      0.00
  117                631.69      1.79      1.08
  119               -729.43      2.07      1.41
  120               1151.36      3.27      3.29
  121               1031.82      2.93      2.69
  122                365.14      2.33      2.83
  123               9722.47      4.41      1.70
  125              13142.45      5.97      2.96
  129               2999.89      2.13      0.66
  131               2734.45      1.94      0.56
  133              -2383.87      2.43      1.05
  135                327.27      0.23      0.01
  137                 56.43      0.09      0.00
  145                270.84      1.73      1.63
  147                263.06      1.68      1.54
  149               -540.81      3.45      5.85
  151               -532.63      3.40      5.69
  153                290.75      0.82      0.26
  155                327.22      0.93      0.32
  159               -338.51      0.96      0.34
  161               -374.24      2.39      2.96
  163               -146.94      0.42      0.07
  169                205.25      1.31      0.97
  171                418.02      1.19      0.50
  173               7920.60      3.60      1.16
  175               7852.24      3.56      1.14
  177               7797.69      3.54      1.13
  179               7527.01      3.42      1.06
  180                  3.43      0.01      0.00
  181                  3.43      0.01      0.00
  183               7304.48      3.32      1.00
  185                -19.22      0.12      0.01
  186                338.01      2.16      2.45
  187               6674.11      3.03      0.85
  189               4593.54      2.08      0.42
  191              -2028.64      1.44      0.32
  193              -1599.87      1.13      0.21
  195                573.82      1.63      0.91
  197                497.03      1.41      0.69
  199                -87.25      0.25      0.03
  201               -584.29      1.66      0.94
  202                530.06      3.38      5.64
  203                225.90      1.44      1.16
  204                530.06      1.50      0.78
  205                338.01      0.96      0.34
  207                313.16      0.89      0.30
  209                156.88      1.00      0.59
  211                611.14      1.73      1.02
  213                181.13      0.51      0.11
  215                146.39      0.42      0.07
  217               -240.34      0.68      0.18
  219               -249.83      0.71      0.19
  221                249.83      1.59      1.40
  223                 48.89      0.14      0.01
  225                 71.39      0.20      0.02
  229               4593.54      3.26      1.25
  231               4310.55      3.06      1.12
  233               4248.33      3.01      1.26
  235                125.49      0.36      0.05
  237                461.01      1.31      0.60
  238                481.01      1.36      0.65
  239                111.59      0.32      0.04
  240                481.01      1.36      0.65
  241                481.01      1.36      0.65
  243                479.86      0.77      0.16
  245                309.07      0.49      0.07
  247                238.30      0.38      0.04
  249                116.61      0.19      0.01
  251                 54.54      0.11      0.01
  257                 30.10      0.09      0.00
  261                 52.37      0.33      0.08
  263                 21.75      0.06      0.00
  269                159.35      0.45      0.08
  271                 54.11      0.35      0.08
  273                 84.64      0.24      0.03
  275                 13.22      0.04      0.00
  277                  5.73      0.02      0.00
  281                  7.50      0.03      0.00
  283                 12.53      0.04      0.00
  285                -21.03      0.06      0.00
  287                -64.38      0.26      0.04
  289                230.05      0.94      0.41
  291                 71.97      0.29      0.05
  293                 40.39      0.26      0.05
  295                 -8.50      0.02      0.00
  297                484.68      3.09      4.78
  299                232.86      1.49      1.23
  301                232.86      1.49      1.23
  303                251.82      1.61      1.42
  305                147.01      0.42      0.07
  307                398.83      1.13      0.46
  309                206.67      1.32      0.99
  311                -60.27      0.17      0.01
  313                466.10      1.32      0.62
  315              -2173.69      1.54      0.36
  317                108.25      0.69      0.30
  319                 17.23      0.05      0.00
  321               7511.15      3.41      1.05
  323                  3.34      0.01      0.00
  325                145.04      0.93      0.51
  329              13142.45      5.97      3.00
  330                  0.00      0.00      0.00
  333                 -0.00      0.00      0.00
  10                   0.00      0.00      0.00  Pump
  335              13142.45      0.00    -93.58  Pump
   
   
  Node Results at 0:20:00 hrs:
  --------------------------------------------------------
                     Demand      Head  Pressure  Chemical
  Node                  gpm        ft       psi      mg/L
  --------------------------------------------------------
  10                   0.00    146.27     -0.32      0.00
  15                 532.63    133.90     44.15      0.00
  20                   0.00    158.30     12.70      0.00
  35                1599.87    146.42     58.03      0.00
  40                   0.00    145.28      5.80      0.00
  50                   0.00    139.67     10.04      0.00
  60                   0.00    209.04     90.58      0.00
  601                  0.00    302.63    131.13      0.00
  61                   0.00    302.63    131.13      0.00
  101                250.73    146.27     45.18      0.00
  103                175.82    146.23     44.73      0.00
  105                178.69    147.55     51.59      0.00
  107                 72.12    147.55     54.40      0.00
  109                305.45    146.24     54.57      0.00
  111                187.36    146.82     59.29      0.00
  113                 26.41    146.86     62.77      0.00
  115                 68.77    147.63     57.90      0.00
  117                155.38    150.71     59.41      0.00
  119                232.49    158.14     67.66      0.00
  120                  0.00    155.74     67.48      0.00
  121                 54.95    161.54     70.86      0.00
  123                  0.00    165.99     67.16      0.00
  125                 60.19    160.93     64.96      0.00
  127                 23.31    159.12     44.68      0.00
  129                  0.00    159.11     46.85      0.00
  131                 56.43    159.10     66.34      0.00
  139                  7.77    154.64     53.57      0.00
  141                 13.00    151.48     63.90      0.00
  143                  8.18    143.29     64.04      0.00
  145                 36.47    152.38     65.59      0.00
  147                 11.29    153.09     58.32      0.00
  149                 35.73    153.39     59.53      0.00
  151                190.71    156.40     53.25      0.00
  153                 58.30    156.49     39.12      0.00
  157                 68.36    155.73     61.80      0.00
  159                 54.54    152.40     63.44      0.00
  161                 20.86    150.14     63.32      0.00
  163                 12.43    149.69     62.69      0.00
  164                  0.00    149.69     62.69      0.00
  166                  3.43    149.69     65.73      0.00
  167                 19.22    147.84     66.22      0.00
  169                  0.00    147.84     66.22      0.00
  171                 51.93    146.76     65.32      0.00
  173                  0.00    146.74     65.32      0.00
  177                 76.78    146.40     59.97      0.00
  179                  0.00    146.38     59.96      0.00
  181                  0.00    146.42     59.98      0.00
  183                  0.00    146.38     58.66      0.00
  184                  0.00    145.22     55.99      0.00
  185                 33.86    145.79     56.24      0.00
  187                  0.00    146.48     58.06      0.00
  189                142.45    146.78     61.87      0.00
  191                108.11    146.76     52.76      0.00
  193                 94.13    146.85     55.83      0.00
  195                  0.00    146.92     56.95      0.00
  197                 22.49    146.77     53.63      0.00
  199                157.50    141.71     62.27      0.00
  201                 58.89    141.00     61.05      0.00
  203               4248.33    140.85     60.16      0.00
  204                  0.00    146.24     54.27      0.00
  205                 86.28    141.66     52.28      0.00
  206                  0.00    140.63     60.50      0.00
  207                 91.59    140.93     57.17      0.00
  208                  0.00    140.28     53.85      0.00
  209                  1.15    139.68     61.39      0.00
  211                 11.44    139.48     57.40      0.00
  213                 18.40    139.41     57.37      0.00
  215                121.69    139.22     57.29      0.00
  217                 31.97    139.20     57.72      0.00
  219                 54.54    139.19     58.58      0.00
  225                 30.10    139.20     56.85      0.00
  229                 84.72    139.23     55.78      0.00
  231                 21.75    139.23     58.16      0.00
  237                 20.61    139.29     54.29      0.00
  239                 58.89    139.28     54.72      0.00
  241                  0.00    139.28     54.72      0.00
  243                  5.73    139.27     54.28      0.00
  247                 92.90    139.27     52.55      0.00
  249                  0.00    139.27     52.55      0.00
  251                 31.89    139.27     47.35      0.00
  253                 71.97    139.27     44.75      0.00
  255                 53.31    139.32     48.67      0.00
  257                  0.00    152.66     58.78      0.00
  259                  0.00    152.23     55.13      0.00
  261                  0.00    150.67     65.28      0.00
  263                  0.00    150.51     65.21      0.00
  265                  0.00    148.43     64.31      0.00
  267                  0.00    146.87     54.54      0.00
  269                  0.00    147.18     63.77      0.00
  271                  0.00    146.52     60.89      0.00
  273                  0.00    141.66     57.92      0.00
  275                  0.00    141.00     56.76      0.00
  River           -13140.40    220.00      0.00      0.00  Reservoir
  Lake                 0.00    167.00      0.00      0.00  Reservoir
  1                  579.34    145.28      5.80      0.00  Tank
  2                 -220.98    139.67     10.04      0.00  Tank
  3                 2377.71    158.30     12.70      0.00  Tank
   
   
  Link Results at 0:20:00 hrs:
  ----------------------------------------------
                       Flow  Velocity  Headloss
  Link                  gpm       fps   /1000ft
  ----------------------------------------------
  20               -2377.71      0.10      0.00
  40                -579.34      0.02      0.00
  50                 220.98      0.01      0.00
  60               13140.40      9.32      8.91
  101                  0.00      0.00      0.00
  103                168.66      0.27      0.02
  105               -419.40      1.19      0.51
  107                 33.81      0.10      0.00
  109                 -7.16      0.01      0.00
  111               -312.61      0.89      0.29
  112                497.87      1.41      0.70
  113                -73.69      0.21      0.02
  114                124.78      0.80      0.39
  115                -38.31      0.24      0.04
  116                 24.67      0.07      0.00
  117                631.90      1.79      1.08
  119               -729.73      2.07      1.41
  120               1151.74      3.27      3.29
  121               1032.16      2.93      2.69
  122                365.27      2.33      2.83
  123               9726.25      4.41      1.70
  125              13140.40      5.96      2.96
  129               2993.93      2.12      0.66
  131               2728.42      1.93      0.56
  133              -2377.71      2.43      1.05
  135                327.40      0.23      0.01
  137                 56.43      0.09      0.00
  145                270.97      1.73      1.63
  147                263.20      1.68      1.54
  149               -540.81      3.45      5.85
  151               -532.63      3.40      5.69
  153                290.62      0.82      0.26
  155                327.09      0.93      0.32
  159               -338.38      0.96      0.34
  161               -374.11      2.39      2.96
  163               -147.02      0.42      0.07
  169                205.32      1.31      0.97
  171                417.81      1.19      0.50
  173               7924.21      3.60      1.16
  175               7855.85      3.57      1.14
  177               7801.31      3.54      1.13
  179               7530.58      3.42      1.06
  180                  3.43      0.01      0.00
  181                  3.43      0.01      0.00
  183               7308.05      3.32      1.00
  185                -19.22      0.12      0.01
  186                338.53      2.16      2.46
  187               6677.80      3.03      0.85
  189               4601.48      2.09      0.42
  191              -2024.40      1.44      0.32
  193              -1599.87      1.13      0.21
  195                569.61      1.62      0.89
  197                492.83      1.40      0.68
  199                -86.51      0.25      0.03
  201               -579.34      1.64      0.92
  202                531.18      3.39      5.66
  203                226.51      1.45      1.17
  204                531.18      1.51      0.79
  205                338.53      0.96      0.34
  207                313.03      0.89      0.29
  209                157.07      1.00      0.59
  211                611.03      1.73      1.02
  213                181.46      0.51      0.11
  215                146.61      0.42      0.07
  217               -240.47      0.68      0.18
  219               -249.88      0.71      0.19
  221                249.88      1.59      1.40
  223                 49.10      0.14      0.01
  225                 71.59      0.20      0.02
  229               4601.48      3.26      1.26
  231               4316.87      3.06      1.12
  233               4248.33      3.01      1.26
  235                127.11      0.36      0.06
  237                463.66      1.32      0.61
  238                490.07      1.39      0.68
  239                118.01      0.33      0.05
  240                490.07      1.39      0.68
  241                490.07      1.39      0.68
  243                488.93      0.78      0.17
  245                310.81      0.50      0.07
  247                238.30      0.38      0.04
  249                116.61      0.19      0.01
  251                 54.54      0.11      0.01
  257                 30.10      0.09      0.00
  261                 54.11      0.35      0.08
  263                 21.75      0.06      0.00
  269                166.67      0.47      0.09
  271                 52.36      0.33      0.08
  273                 93.70      0.27      0.03
  275                 16.61      0.05      0.00
  277                  5.73      0.02      0.00
  281                 10.88      0.04      0.00
  283                 18.21      0.05      0.00
  285                -23.28      0.07      0.00
  287                -58.74      0.24      0.03
  289                220.98      0.90      0.38
  291                 71.97      0.29      0.05
  293                 36.96      0.24      0.04
  295                 -5.07      0.01      0.00
  297                484.84      3.09      4.78
  299                232.94      1.49      1.23
  301                232.94      1.49      1.23
  303                251.91      1.61      1.42
  305                147.06      0.42      0.07
  307                398.96      1.13      0.46
  309                206.66      1.32      0.99
  311                -60.05      0.17      0.01
  313                465.94      1.32      0.62
  315              -2169.48      1.54      0.36
  317                108.35      0.69      0.30
  319                 18.76      0.05      0.00
  321               7514.71      3.41      1.05
  323                  9.66      0.03      0.00
  325                145.09      0.93      0.51
  329              13140.40      5.96      3.00
  330                  0.00      0.00      0.00
  333                 -0.00      0.00      0.00
  10                   0.00      0.00      0.00  Pump
  335              13140.40      0.00    -93.60  Pump
   
   
  Node Results at 0:25:00 hrs:
  --------------------------------------------------------
                     Demand      Head  Pressure  Chemical
  Node                  gpm        ft       psi      mg/L
  --------------------------------------------------------
  10                   0.00    146.32     -0.30      0.00
  15                 532.63    133.97     44.18      0.00
  20                   0.00    158.38     12.73      0.00
  35                1599.87    146.47     58.05      0.00
  40                   0.00    145.35      5.83      0.00
  50                   0.00    139.59     10.01      0.00
  60                   0.00    209.04     90.58      0.00
  601                  0.00    302.66    131.14      0.00
  61                   0.00    302.66    131.14      0.00
  101                250.73    146.32     45.20      0.00
  103                175.82    146.29     44.75      0.00
  105                178.69    147.61     51.61      0.00
  107                 72.12    147.60     54.42      0.00
  109                305.45    146.29     54.59      0.00
  111                187.36    146.88     59.31      0.00
  113                 26.41    146.91     62.79      0.00
  115                 68.77    147.68     57.93      0.00
  117                155.38    150.77     59.44      0.00
  119                232.49    158.20     67.68      0.00
  120                  0.00    155.80     67.51      0.00
  121                 54.95    161.60     70.89      0.00
  123                  0.00    166.05     67.18      0.00
  125                 60.19    160.99     64.99      0.00
  127                 23.31    159.20     44.71      0.00
  129                  0.00    159.19     46.88      0.00
  131                 56.43    159.17     66.37      0.00
  139                  7.77    154.71     53.60      0.00
  141                 13.00    151.54     63.93      0.00
  143                  8.18    143.35     64.06      0.00
  145                 36.47    152.45     65.62      0.00
  147                 11.29    153.15     58.34      0.00
  149                 35.73    153.45     59.56      0.00
  151                190.71    156.46     53.28      0.00
  153                 58.30    156.55     39.15      0.00
  157                 68.36    155.78     61.83      0.00
  159                 54.54    152.46     63.46      0.00
  161                 20.86    150.20     63.35      0.00
  163                 12.43    149.74     62.72      0.00
  164                  0.00    149.74     62.72      0.00
  166                  3.43    149.74     65.75      0.00
  167                 19.22    147.89     66.25      0.00
  169                  0.00    147.89     66.25      0.00
  171                 51.93    146.81     65.35      0.00
  173                  0.00    146.79     65.34      0.00
  177                 76.78    146.45     59.99      0.00
  179                  0.00    146.43     59.98      0.00
  181                  0.00    146.47     60.00      0.00
  183                  0.00    146.43     58.68      0.00
  184                  0.00    145.27     56.01      0.00
  185                 33.86    145.84     56.26      0.00
  187                  0.00    146.53     58.08      0.00
  189                142.45    146.83     61.89      0.00
  191                108.11    146.81     52.78      0.00
  193                 94.13    146.90     55.85      0.00
  195                  0.00    146.97     56.97      0.00
  197                 22.49    146.82     53.65      0.00
  199                157.50    141.74     62.28      0.00
  201                 58.89    141.03     61.07      0.00
  203               4248.33    140.88     60.18      0.00
  204                  0.00    146.29     54.29      0.00
  205                 86.28    141.70     52.30      0.00
  206                  0.00    140.64     60.51      0.00
  207                 91.59    140.96     57.18      0.00
[...]
  219                 71.07    136.93     57.60      0.00
  225                 39.22    136.94     55.87      0.00
  229                110.39    137.17     54.89      0.00
  231                 28.35    137.16     57.27      0.00
  237                 26.85    137.36     53.45      0.00
  239                 76.73    137.36     53.89      0.00
  241                  0.00    137.36     53.89      0.00
  243                  7.46    137.36     53.45      0.00
  247                121.05    137.38     51.73      0.00
  249                  0.00    137.38     51.73      0.00
  251                 41.56    137.41     46.54      0.00
  253                 93.77    137.70     44.07      0.00
  255                 69.47    137.78     48.00      0.00
  257                  0.00    150.95     58.04      0.00
  259                  0.00    150.46     54.36      0.00
  261                  0.00    148.71     64.44      0.00
  263                  0.00    148.52     64.35      0.00
  265                  0.00    147.52     63.92      0.00
  267                  0.00    145.68     54.03      0.00
  269                  0.00    146.22     63.36      0.00
  271                  0.00    145.80     60.58      0.00
  273                  0.00    139.50     56.98      0.00
  275                  0.00    138.67     55.75      0.00
  River           -13204.95    220.00      0.00      0.00  Reservoir
  Lake                 0.00    167.00      0.00      0.00  Reservoir
  1                 -771.19    147.65      6.83      0.00  Tank
  2                 -471.86    139.20      9.84      0.00  Tank
  3                  465.42    160.31     13.57      0.00  Tank
   
   
  Link Results at 23:55:00 hrs:
  ----------------------------------------------
                       Flow  Velocity  Headloss
  Link                  gpm       fps   /1000ft
  ----------------------------------------------
  20                -465.42      0.02      0.00
  40                 771.19      0.03      0.00
  50                 471.86      0.02      0.00
  60               13204.95      9.36      8.99
  101                  0.00      0.00      0.00
  103                131.89      0.21      0.01
  105               -458.61      1.30      0.60
  107                 -9.56      0.03      0.00
  109                -97.21      0.16      0.01
  111               -495.22      1.40      0.69
  112                447.05      1.27      0.57
  113               -198.20      0.56      0.13
  114                 93.04      0.59      0.22
  115               -103.54      0.66      0.27
  116               -139.58      0.40      0.07
  117                681.89      1.93      1.25
  119               -733.23      2.08      1.43
  120               1238.21      3.51      3.76
  121               1100.33      3.12      3.03
  122                379.37      2.42      3.03
  123               9843.72      4.47      1.74
  125              11413.20      5.18      2.28
  129               1118.51      0.79      0.11
  131                827.37      0.59      0.06
  133               -465.42      0.48      0.05
  135                331.57      0.24      0.01
  137                 73.53      0.12      0.00
  145                258.04      1.65      1.49
  147                247.91      1.58      1.38
  149               -387.49      2.47      3.16
  151               -376.83      2.41      3.00
  153                156.53      0.44      0.08
  155                204.05      0.58      0.13
  159               -218.76      0.62      0.15
  161               -265.32      1.69      1.56
  163               -136.74      0.39      0.06
  169                212.71      1.36      1.04
  171                377.08      1.07      0.42
  173               7925.48      3.60      1.16
  175               7836.40      3.56      1.14
  177               7765.33      3.52      1.12
  179               7464.65      3.39      1.04
  180                  4.47      0.01      0.00
  181                  4.47      0.01      0.00
  183               7218.02      3.28      0.98
  185                -25.04      0.16      0.02
  186                304.81      1.95      2.02
  187               6551.95      2.97      0.82
  189               5206.79      2.36      0.53
  191              -1277.50      0.91      0.14
  193              -1741.58      1.24      0.24
  195               -350.07      0.99      0.36
  197               -450.12      1.28      0.58
  199                321.06      0.91      0.31
  201                771.19      2.19      1.57
  202                591.28      3.77      6.90
  203                330.58      2.11      2.35
  204                591.28      1.68      0.96
  205                304.81      0.86      0.28
  207                  9.52      0.03      0.00
  209                235.17      1.50      1.25
  211                641.03      1.82      1.11
  213                 69.65      0.20      0.02
  215                -96.71      0.27      0.03
  217               -333.93      0.95      0.33
  219               -273.50      0.78      0.23
  221                273.50      1.75      1.66
  223               -123.42      0.35      0.05
  225                -94.11      0.27      0.03
  229               5206.79      3.69      1.58
  231               4856.89      3.44      1.39
  233               4829.67      3.43      1.60
  235                144.66      0.41      0.07
  237                501.95      1.42      0.71
  238                454.67      1.29      0.59
  239                 72.06      0.20      0.02
  240                454.67      1.29      0.59
  241                454.67      1.29      0.59
  243                453.17      0.72      0.14
  245                377.15      0.60      0.10
  247                310.51      0.50      0.07
  249                151.94      0.24      0.02
  251                 71.07      0.15      0.01
  257                 39.22      0.11      0.01
  261                 42.66      0.27      0.05
  263                 28.35      0.08      0.00
  269                 61.11      0.17      0.01
  271                 96.08      0.61      0.24
  273                -61.82      0.18      0.01
  275                -47.29      0.13      0.01
  277                  7.46      0.02      0.00
  281                -54.76      0.22      0.03
  283                -91.25      0.26      0.03
  285                 16.47      0.05      0.00
  287               -192.28      0.79      0.29
  289                471.86      1.93      1.53
  291                 93.77      0.38      0.08
  293                116.34      0.74      0.34
  295                -74.78      0.21      0.02
  297                517.25      3.30      5.39
  299                248.69      1.59      1.39
  301                248.69      1.59      1.39
  303                268.56      1.71      1.60
  305                164.64      0.47      0.09
  307                433.20      1.23      0.54
  309                225.95      1.44      1.16
  311               -322.66      0.92      0.31
  313                527.02      1.50      0.77
  315              -1391.51      0.99      0.16
  317                121.57      0.78      0.37
  319                 23.09      0.07      0.00
  321               7443.98      3.38      1.03
  323                -49.51      0.14      0.01
  325                114.01      0.73      0.33
  329              13204.95      5.99      3.03
  330                  0.00      0.00      0.00
  333                 -0.00      0.00      0.00
  10                   0.00      0.00      0.00  Pump
  335              13204.95      0.00    -93.03  Pump
   
   
  Node Results at 24:00:00 hrs:
  --------------------------------------------------------
                     Demand      Head  Pressure  Chemical
  Node                  gpm        ft       psi      mg/L
  --------------------------------------------------------
  10                   0.00    148.07      0.46      0.00
  15                 532.63    135.79     44.97      0.00
  20                   0.00    160.32     13.57      0.00
  35                1599.87    148.23     58.81      0.00
  40                   0.00    147.56      6.79      0.00
  50                   0.00    139.04      9.77      0.00
  60                   0.00    209.13     90.62      0.00
  601                  0.00    303.27    131.41      0.00
  61                   0.00    303.27    131.41      0.00
  101                250.73    148.07     45.96      0.00
  103                175.82    148.04     45.51      0.00
  105                178.69    149.36     52.37      0.00
  107                 72.12    149.35     55.18      0.00
  109                305.45    148.04     55.35      0.00
  111                187.36    148.62     60.07      0.00
  113                 26.41    148.66     63.55      0.00
  115                 68.77    149.43     58.68      0.00
  117                155.38    152.53     60.20      0.00
  119                232.49    159.97     68.45      0.00
  120                  0.00    157.57     68.27      0.00
  121                 54.95    163.38     71.66      0.00
  123                  0.00    167.79     67.94      0.00
  125                 60.19    162.80     65.77      0.00
  127                 23.31    161.09     45.54      0.00
  129                  0.00    161.08     47.70      0.00
  131                 56.43    161.06     67.19      0.00
  139                  7.77    156.56     54.41      0.00
  141                 13.00    153.37     64.72      0.00
  143                  8.18    145.18     64.85      0.00
  145                 36.47    154.26     66.41      0.00
  147                 11.29    154.96     59.13      0.00
  149                 35.73    155.26     60.34      0.00
  151                190.71    158.25     54.05      0.00
  153                 58.30    158.34     39.92      0.00
  157                 68.36    157.55     62.59      0.00
  159                 54.54    154.21     64.22      0.00
  161                 20.86    151.94     64.10      0.00
  163                 12.43    151.48     63.47      0.00
  164                  0.00    151.48     63.47      0.00
  166                  3.43    151.48     66.50      0.00
  167                 19.22    149.62     67.00      0.00
  169                  0.00    149.62     67.00      0.00
  171                 51.93    148.54     66.09      0.00
  173                  0.00    148.52     66.09      0.00
  177                 76.78    148.22     60.76      0.00
  179                  0.00    148.21     60.75      0.00
  181                  0.00    148.24     60.76      0.00
  183                  0.00    148.21     59.45      0.00
  184                  0.00    146.94     56.74      0.00
  185                 33.86    147.55     57.00      0.00
  187                  0.00    148.27     58.83      0.00
  189                142.45    148.58     62.65      0.00
  191                108.11    148.56     53.54      0.00
  193                 94.13    148.65     56.61      0.00
  195                  0.00    148.72     57.73      0.00
  197                 22.49    148.57     54.41      0.00
  199                157.50    143.19     62.91      0.00
  201                 58.89    142.45     61.68      0.00
  203               4248.33    142.30     60.79      0.00
  204                  0.00    148.02     55.04      0.00
  205                 86.28    143.11     52.91      0.00
  206                  0.00    141.68     60.96      0.00
  207                 91.59    142.20     57.72      0.00
  208                  0.00    141.09     54.20      0.00
  209                  1.15    140.07     61.56      0.00
  211                 11.44    139.72     57.51      0.00
  213                 18.40    139.63     57.47      0.00
  215                121.69    139.45     57.39      0.00
  217                 31.97    139.43     57.81      0.00
  219                 54.54    139.42     58.68      0.00
  225                 30.10    139.42     56.94      0.00
  229                 84.72    139.16     55.75      0.00
  231                 21.75    139.16     58.13      0.00
  237                 20.61    139.17     54.24      0.00
  239                 58.89    139.06     54.62      0.00
  241                  0.00    139.06     54.62      0.00
  243                  5.73    139.06     54.19      0.00
  247                 92.90    139.04     52.45      0.00
  249                  0.00    139.04     52.45      0.00
  251                 31.89    139.03     47.24      0.00
  253                 71.97    138.96     44.61      0.00
  255                 53.31    139.01     48.53      0.00
  257                  0.00    154.47     59.57      0.00
  259                  0.00    154.04     55.91      0.00
  261                  0.00    152.48     66.07      0.00
  263                  0.00    152.32     66.00      0.00
  265                  0.00    150.21     65.09      0.00
  267                  0.00    148.67     55.32      0.00
  269                  0.00    148.97     64.55      0.00
  271                  0.00    148.32     61.67      0.00
  273                  0.00    143.12     58.55      0.00
  275                  0.00    142.43     57.38      0.00
  River           -13079.39    220.00      0.00      0.00  Reservoir
  Lake                 0.00    167.00      0.00      0.00  Reservoir
  1                  434.88    147.56      6.79      0.00  Tank
  2                  -55.76    139.04      9.77      0.00  Tank
  3                 2295.94    160.32     13.57      0.00  Tank
   
   
  Link Results at 24:00:00 hrs:
  ----------------------------------------------
                       Flow  Velocity  Headloss
  Link                  gpm       fps   /1000ft
  ----------------------------------------------
  20               -2295.94      0.10      0.00
  40                -434.88      0.02      0.00
  50                  55.76      0.00      0.00
  60               13079.39      9.28      8.83
  101                  0.00      0.00      0.00
  103                169.19      0.27      0.02
  105               -419.92      1.19      0.51
  107                 34.14      0.10      0.00
  109                 -6.63      0.01      0.00
  111               -312.08      0.89      0.29
  112                499.05      1.42      0.70
  113                -73.22      0.21      0.02
  114                125.12      0.80      0.39
  115                -37.98      0.24      0.04
  116                 25.49      0.07      0.00
  117                632.76      1.79      1.09
  119               -730.93      2.07      1.42
  120               1153.20      3.27      3.30
  121               1033.56      2.93      2.69
  122                365.86      2.34      2.84
  123               9744.27      4.42      1.70
  125              13079.39      5.94      2.94
  129               2914.31      2.07      0.63
  131               2648.19      1.88      0.53
  133              -2295.94      2.34      0.98
  135                328.94      0.23      0.01
  137                 56.43      0.09      0.00
  145                272.51      1.74      1.64
  147                264.73      1.69      1.56
  149               -540.81      3.45      5.85
  151               -532.63      3.40      5.69
  153                289.08      0.82      0.25
  155                325.55      0.92      0.32
  159               -336.84      0.96      0.34
  161               -372.57      2.38      2.93
  163               -147.62      0.42      0.07
  169                205.93      1.31      0.98
  171                415.66      1.18      0.50
  173               7942.91      3.61      1.17
  175               7874.55      3.57      1.15
  177               7820.01      3.55      1.13
  179               7549.41      3.43      1.06
  180                  3.43      0.01      0.00
  181                  3.43      0.01      0.00
  183               7327.76      3.33      1.00
  185                -19.22      0.12      0.01
  186                346.02      2.21      2.56
  187               6702.86      3.04      0.85
  189               4745.48      2.15      0.45
  191              -1905.45      1.35      0.29
  193              -1599.87      1.13      0.21
  195                449.76      1.28      0.58
  197                372.97      1.06      0.41
  199                -61.90      0.18      0.01
  201               -434.88      1.23      0.54
  202                552.40      3.53      6.09
  203                240.24      1.53      1.30
  204                552.40      1.57      0.84
  205                346.02      0.98      0.36
  207                302.15      0.86      0.28
  209                161.17      1.03      0.62
  211                605.68      1.72      1.00
  213                184.85      0.52      0.11
  215                144.27      0.41      0.07
  217               -242.62      0.69      0.18
  219               -249.74      0.71      0.19
  221                249.74      1.59      1.40
  223                 50.34      0.14      0.01
  225                 72.83      0.21      0.02
  229               4745.48      3.37      1.33
  231               4423.00      3.14      1.17
  233               4248.33      3.01      1.26
  235                164.98      0.47      0.09
  237                520.89      1.48      0.76
  238                655.30      1.86      1.16
  239                226.00      0.64      0.16
  240                655.30      1.86      1.16
  241                655.30      1.86      1.16
  243                654.15      1.04      0.28
  245                347.30      0.55      0.09
  247                238.30      0.38      0.04
  249                116.61      0.19      0.01
  251                 54.54      0.11      0.01
  257                 30.10      0.09      0.00
  261                 90.60      0.58      0.21
  263                 21.75      0.06      0.00
  269                295.41      0.84      0.26
  271                 15.87      0.10      0.01
  273                258.93      0.73      0.21
  275                 78.48      0.22      0.02
  277                  5.73      0.02      0.00
  281                 72.75      0.30      0.05
  283                121.56      0.34      0.05
  285                -68.63      0.19      0.02
  287                 48.48      0.20      0.02
  289                 55.76      0.23      0.03
  291                 71.97      0.29      0.05
  293                -21.04      0.13      0.01
  295                 52.94      0.15      0.01
  297                485.50      3.10      4.79
  299                233.25      1.49      1.23
  301                233.25      1.49      1.23
  303                252.25      1.61      1.43
  305                147.26      0.42      0.07
  307                399.50      1.13      0.46
  309                205.79      1.31      0.98
  311                -61.52      0.17      0.01
  313                461.50      1.31      0.61
  315              -2049.63      1.45      0.33
  317                110.21      0.70      0.31
  319                 54.77      0.16      0.01
  321               7533.55      3.42      1.06
  323                115.79      0.33      0.05
  325                144.18      0.92      0.51
  329              13079.39      5.94      2.98
  330                  0.00      0.00      0.00
  333                 -0.00      0.00      0.00
  10                   0.00      0.00      0.00  Pump
  335              13079.39      0.00    -94.13  Pump
   
  Analysis ended Wed May 06 17:38:26 2020
