  Page 1                                    Wed May 06 17:39:35 2020

  ******************************************************************
  *                           E P A N E T                          *
  *                   Hydraulic and Water Quality                  *
  *                   Analysis for Pipe Networks                   *
  *                         Version 2.00.12                        *
  ******************************************************************
  
  Analysis begun Wed May 06 17:39:35 2020

   
  Hydraulic Status:
  -----------------------------------------------------------------------
     0:00:00: Balanced after 6 trials
     0:00:00: Reservoir River is emptying
     0:00:00: Reservoir Lake is closed
     0:00:00: Tank 1 is filling at 13.10 ft
     0:00:00: Tank 2 is emptying at 23.50 ft
     0:00:00: Tank 3 is filling at 29.00 ft
   
     0:05:00: Balanced after 2 trials
   
     0:10:00: Balanced after 2 trials
   
     0:15:00: Balanced after 2 trials
   
     0:20:00: Balanced after 2 trials
   
     0:25:00: Balanced after 2 trials
   
     0:30:00: Balanced after 2 trials
   
     0:35:00: Balanced after 2 trials
   
     0:40:00: Balanced after 2 trials
   
     0:45:00: Balanced after 2 trials
   
     0:50:00: Balanced after 2 trials
   
     0:55:00: Balanced after 2 trials
   
     1:00:00: Pump 10 changed by timer control
     1:00:00: Balanced after 7 trials
     1:00:00: Reservoir Lake is emptying
     1:00:00: Pump 10 changed from closed to open
   
     1:05:00: Balanced after 2 trials
   
     1:10:00: Balanced after 2 trials
   
     1:15:00: Balanced after 2 trials
   
     1:20:00: Balanced after 2 trials
   
     1:25:00: Balanced after 2 trials
   
     1:30:00: Balanced after 2 trials
   
     1:35:00: Balanced after 2 trials
   
     1:40:00: Balanced after 2 trials
   
     1:45:00: Balanced after 2 trials
   
     1:50:00: Balanced after 2 trials
   
     1:55:00: Balanced after 2 trials
   
     2:00:00: Balanced after 4 trials
     2:00:00: Tank 2 is filling at 20.46 ft
   
     2:05:00: Balanced after 1 trials
   
     2:10:00: Balanced after 1 trials
   
     2:15:00: Balanced after 1 trials
   
     2:20:00: Balanced after 1 trials
   
     2:25:00: Balanced after 1 trials
   
     2:30:00: Balanced after 1 trials
   
     2:35:00: Balanced after 1 trials
   
     2:40:00: Balanced after 1 trials
   
     2:45:00: Balanced after 1 trials
   
     2:50:00: Balanced after 1 trials
   
     2:55:00: Balanced after 1 trials
   
     3:00:00: Balanced after 2 trials
   
     3:05:00: Balanced after 1 trials
   
     3:10:00: Balanced after 1 trials
   
     3:15:00: Balanced after 1 trials
   
     3:20:00: Balanced after 1 trials
   
     3:25:00: Balanced after 1 trials
   
     3:30:00: Balanced after 1 trials
   
     3:35:00: Balanced after 1 trials
   
     3:40:00: Balanced after 1 trials
   
     3:45:00: Balanced after 1 trials
   
     3:50:00: Balanced after 1 trials
   
     3:55:00: Balanced after 1 trials
   
     4:00:00: Balanced after 3 trials
   
     4:05:00: Balanced after 1 trials
   
     4:10:00: Balanced after 1 trials
   
     4:15:00: Balanced after 1 trials
   
     4:20:00: Balanced after 1 trials
   
     4:25:00: Balanced after 1 trials
   
     4:30:00: Balanced after 1 trials
   
     4:35:00: Balanced after 1 trials
   
     4:40:00: Balanced after 1 trials
   
     4:42:02: Pump 335 changed by Tank 1 control
     4:42:02: Pipe 330 changed by Tank 1 control
     4:42:02: Balanced after 4 trials
     4:42:02: Pipe 330 changed from closed to open
     4:42:02: Pump 335 changed from open to closed
   
     4:45:00: Balanced after 1 trials
   
     4:50:00: Balanced after 2 trials
   
     4:55:00: Balanced after 2 trials
   
     5:00:00: Balanced after 3 trials
     5:00:00: Tank 3 is emptying at 34.62 ft
   
     5:05:00: Balanced after 2 trials
   
     5:10:00: Balanced after 2 trials
   
     5:15:00: Balanced after 2 trials
   
     5:20:00: Balanced after 2 trials
   
     5:25:00: Balanced after 2 trials
   
     5:30:00: Balanced after 2 trials
   
     5:35:00: Balanced after 2 trials
   
     5:40:00: Balanced after 2 trials
   
     5:45:00: Balanced after 2 trials
   
     5:50:00: Balanced after 2 trials
   
     5:55:00: Balanced after 2 trials
   
     6:00:00: Balanced after 3 trials
     6:00:00: Tank 3 is filling at 34.28 ft
   
     6:05:00: Balanced after 2 trials
   
     6:10:00: Balanced after 2 trials
   
     6:15:00: Balanced after 2 trials
   
     6:20:00: Balanced after 2 trials
   
     6:25:00: Balanced after 2 trials
   
     6:30:00: Balanced after 2 trials
   
     6:35:00: Balanced after 2 trials
   
     6:40:00: Balanced after 2 trials
   
     6:45:00: Balanced after 2 trials
   
     6:50:00: Balanced after 2 trials
   
     6:55:00: Balanced after 2 trials
   
     7:00:00: Balanced after 3 trials
   
     7:05:00: Balanced after 1 trials
   
     7:10:00: Balanced after 1 trials
   
     7:15:00: Balanced after 1 trials
   
     7:20:00: Balanced after 1 trials
   
     7:25:00: Balanced after 1 trials
   
     7:30:00: Balanced after 1 trials
   
     7:35:00: Balanced after 1 trials
   
     7:40:00: Balanced after 1 trials
   
     7:45:00: Balanced after 1 trials
   
     7:50:00: Balanced after 1 trials
   
     7:55:00: Balanced after 1 trials
   
     8:00:00: Balanced after 3 trials
   
     8:05:00: Balanced after 1 trials
   
     8:10:00: Balanced after 1 trials
   
     8:15:00: Balanced after 1 trials
   
     8:20:00: Balanced after 1 trials
   
     8:25:00: Balanced after 1 trials
   
     8:30:00: Balanced after 1 trials
   
     8:35:00: Balanced after 1 trials
   
     8:40:00: Balanced after 1 trials
   
     8:45:00: Balanced after 1 trials
   
     8:50:00: Balanced after 1 trials
   
     8:55:00: Balanced after 1 trials
   
     9:00:00: Balanced after 4 trials
     9:00:00: Tank 1 is emptying at 22.67 ft
     9:00:00: Tank 2 is emptying at 27.15 ft
     9:00:00: Tank 3 is emptying at 35.48 ft
   
     9:05:00: Balanced after 1 trials
   
     9:10:00: Balanced after 1 trials
   
     9:15:00: Balanced after 1 trials
   
     9:20:00: Balanced after 1 trials
   
     9:25:00: Balanced after 1 trials
   
     9:30:00: Balanced after 1 trials
   
     9:35:00: Balanced after 1 trials
   
     9:40:00: Balanced after 1 trials
   
     9:45:00: Balanced after 1 trials
   
     9:50:00: Balanced after 1 trials
   
     9:55:00: Balanced after 1 trials
   
    10:00:00: Balanced after 4 trials
    10:00:00: Tank 1 is filling at 22.13 ft
    10:00:00: Tank 2 is filling at 26.88 ft
   
    10:05:00: Balanced after 2 trials
   
    10:10:00: Balanced after 2 trials
   
    10:15:00: Balanced after 2 trials
   
    10:20:00: Balanced after 2 trials
   
    10:25:00: Balanced after 2 trials
   
    10:30:00: Balanced after 2 trials
   
    10:35:00: Balanced after 1 trials
   
    10:40:00: Balanced after 1 trials
   
    10:45:00: Balanced after 1 trials
   
    10:50:00: Balanced after 1 trials
   
    10:55:00: Balanced after 1 trials
   
    11:00:00: Balanced after 3 trials
   
    11:05:00: Balanced after 2 trials
   
    11:10:00: Balanced after 2 trials
   
    11:15:00: Balanced after 2 trials
   
    11:20:00: Balanced after 2 trials
   
    11:25:00: Balanced after 2 trials
   
    11:30:00: Balanced after 2 trials
   
    11:35:00: Balanced after 2 trials
   
    11:40:00: Balanced after 2 trials
   
    11:45:00: Balanced after 2 trials
   
    11:50:00: Balanced after 2 trials
   
    11:55:00: Balanced after 2 trials
   
    12:00:00: Balanced after 3 trials
    12:00:00: Tank 1 is emptying at 22.56 ft
   
    12:05:00: Balanced after 1 trials
   
    12:10:00: Balanced after 1 trials
   
    12:15:00: Balanced after 1 trials
   
    12:20:00: Balanced after 1 trials
   
    12:25:00: Balanced after 1 trials
   
    12:30:00: Balanced after 1 trials
   
    12:35:00: Balanced after 1 trials
   
    12:40:00: Balanced after 1 trials
   
    12:45:00: Balanced after 1 trials
   
    12:50:00: Balanced after 1 trials
   
    12:55:00: Balanced after 1 trials
   
    13:00:00: Balanced after 3 trials
    13:00:00: Tank 1 is filling at 22.25 ft
   
    13:05:00: Balanced after 2 trials
   
    13:10:00: Balanced after 2 trials
   
    13:15:00: Balanced after 2 trials
   
    13:20:00: Balanced after 2 trials
   
    13:25:00: Balanced after 2 trials
   
    13:30:00: Balanced after 2 trials
   
    13:35:00: Balanced after 2 trials
   
    13:40:00: Balanced after 2 trials
   
    13:45:00: Balanced after 2 trials
   
    13:50:00: Balanced after 2 trials
   
    13:55:00: Balanced after 2 trials
   
    14:00:00: Balanced after 3 trials
    14:00:00: Tank 1 is emptying at 22.45 ft
   
    14:05:00: Balanced after 1 trials
   
    14:10:00: Balanced after 1 trials
   
    14:15:00: Balanced after 1 trials
   
    14:20:00: Balanced after 1 trials
   
    14:25:00: Balanced after 1 trials
   
    14:30:00: Balanced after 1 trials
   
    14:35:00: Balanced after 1 trials
   
    14:40:00: Balanced after 1 trials
   
    14:45:00: Balanced after 1 trials
   
    14:50:00: Balanced after 1 trials
   
    14:55:00: Balanced after 1 trials
   
    15:00:00: Pump 10 changed by timer control
    15:00:00: Balanced after 5 trials
    15:00:00: Reservoir Lake is closed
    15:00:00: Pump 10 changed from open to closed
   
    15:05:00: Balanced after 2 trials
   
    15:10:00: Balanced after 2 trials
   
    15:15:00: Balanced after 2 trials
   
    15:20:00: Balanced after 2 trials
   
    15:25:00: Balanced after 2 trials
   
    15:30:00: Balanced after 2 trials
   
    15:35:00: Balanced after 2 trials
   
    15:40:00: Balanced after 2 trials
   
    15:45:00: Balanced after 2 trials
   
    15:50:00: Balanced after 2 trials
   
    15:55:00: Balanced after 2 trials
    15:55:00: Tank 2 is emptying at 28.52 ft
   
    16:00:00: Balanced after 4 trials
   
    16:05:00: Balanced after 1 trials
   
    16:10:00: Balanced after 1 trials
   
    16:15:00: Balanced after 1 trials
   
    16:20:00: Balanced after 1 trials
   
    16:25:00: Balanced after 1 trials
   
    16:30:00: Balanced after 1 trials
   
    16:35:00: Balanced after 1 trials
   
    16:40:00: Balanced after 1 trials
   
    16:45:00: Balanced after 1 trials
   
    16:50:00: Balanced after 1 trials
   
    16:55:00: Balanced after 1 trials
   
    17:00:00: Balanced after 3 trials
    17:00:00: Tank 2 is filling at 27.98 ft
   
    17:05:00: Balanced after 2 trials
   
    17:10:00: Balanced after 2 trials
   
    17:15:00: Balanced after 2 trials
   
    17:20:00: Balanced after 2 trials
   
    17:25:00: Balanced after 2 trials
   
    17:30:00: Balanced after 2 trials
   
    17:35:00: Balanced after 2 trials
   
    17:40:00: Balanced after 2 trials
   
    17:45:00: Balanced after 2 trials
   
    17:50:00: Balanced after 2 trials
   
    17:55:00: Balanced after 2 trials
   
    18:00:00: Balanced after 3 trials
   
    18:05:00: Balanced after 2 trials
   
    18:10:00: Balanced after 2 trials
   
    18:15:00: Balanced after 2 trials
   
    18:20:00: Balanced after 2 trials
   
    18:25:00: Balanced after 2 trials
   
    18:30:00: Balanced after 2 trials
   
    18:35:00: Balanced after 2 trials
   
    18:40:00: Balanced after 2 trials
   
    18:45:00: Balanced after 2 trials
   
    18:50:00: Balanced after 2 trials
   
    18:55:00: Balanced after 2 trials
   
    19:00:00: Balanced after 2 trials
   
    19:05:00: Balanced after 1 trials
   
    19:10:00: Balanced after 1 trials
   
    19:15:00: Balanced after 1 trials
   
    19:20:00: Balanced after 1 trials
   
    19:25:00: Balanced after 1 trials
   
    19:30:00: Balanced after 1 trials
   
    19:35:00: Balanced after 1 trials
   
    19:40:00: Balanced after 1 trials
   
    19:45:00: Balanced after 1 trials
   
    19:50:00: Balanced after 1 trials
   
    19:55:00: Balanced after 1 trials
   
    20:00:00: Balanced after 3 trials
    20:00:00: Tank 2 is emptying at 28.76 ft
   
    20:05:00: Balanced after 1 trials
   
    20:10:00: Balanced after 1 trials
   
    20:15:00: Balanced after 1 trials
   
    20:20:00: Balanced after 1 trials
   
    20:25:00: Balanced after 1 trials
   
    20:30:00: Balanced after 1 trials
   
    20:35:00: Balanced after 1 trials
   
    20:40:00: Balanced after 1 trials
   
    20:45:00: Balanced after 1 trials
   
    20:50:00: Balanced after 1 trials
   
    20:55:00: Balanced after 1 trials
   
    21:00:00: Balanced after 3 trials
   
    21:05:00: Balanced after 1 trials
   
    21:10:00: Balanced after 1 trials
   
    21:15:00: Balanced after 1 trials
   
    21:20:00: Balanced after 1 trials
   
    21:25:00: Balanced after 1 trials
   
    21:30:00: Balanced after 1 trials
   
    21:35:00: Balanced after 1 trials
   
    21:40:00: Balanced after 1 trials
   
    21:45:00: Balanced after 1 trials
   
    21:50:00: Balanced after 1 trials
   
    21:55:00: Balanced after 1 trials
   
    22:00:00: Balanced after 3 trials
   
    22:05:00: Balanced after 2 trials
   
    22:10:00: Balanced after 2 trials
   
    22:15:00: Balanced after 2 trials
   
    22:20:00: Balanced after 2 trials
   
    22:24:02: Pump 335 changed by Tank 1 control
    22:24:02: Pipe 330 changed by Tank 1 control
    22:24:02: Balanced after 5 trials
    22:24:02: Tank 3 is filling at 29.41 ft
    22:24:02: Pipe 330 changed from open to closed
    22:24:02: Pump 335 changed from closed to open
   
    22:25:00: Balanced after 1 trials
   
    22:30:00: Balanced after 2 trials
   
    22:35:00: Balanced after 2 trials
   
    22:40:00: Balanced after 2 trials
   
    22:45:00: Balanced after 2 trials
   
    22:50:00: Balanced after 2 trials
   
    22:55:00: Balanced after 2 trials
   
    23:00:00: Balanced after 3 trials
   
    23:05:00: Balanced after 2 trials
   
    23:10:00: Balanced after 2 trials
   
    23:15:00: Balanced after 2 trials
   
    23:20:00: Balanced after 2 trials
   
    23:25:00: Balanced after 2 trials
   
    23:30:00: Balanced after 2 trials
   
    23:35:00: Balanced after 2 trials
   
    23:40:00: Balanced after 2 trials
   
    23:45:00: Balanced after 2 trials
   
    23:50:00: Balanced after 2 trials
   
    23:55:00: Balanced after 2 trials
   
    24:00:00: Balanced after 4 trials
   
   
  Node Results at 0:00:00 hrs:
  --------------------------------------------------------
                     Demand      Head  Pressure  Chemical
  Node                  gpm        ft       psi      mg/L
  --------------------------------------------------------
  10                   0.00    145.49     -0.65      0.00
  15                 589.05    128.72     41.91      0.00
  20                   0.00    158.00     12.57      0.00
  35                1956.07    145.23     57.51      0.00
  40                   0.00    145.00      5.68      0.00
  50                   0.00    140.00     10.18      0.00
  60                   0.00    209.01     90.56      0.00
  601                  0.00    302.42    131.04      0.00
  61                   0.00    302.42    131.04      0.00
  101                237.44    145.49     44.84      0.00
  103                166.50    145.45     44.39      0.00
  105                169.21    146.77     51.25      0.00
  107                 68.30    146.76     54.06      0.00
  109                289.25    145.45     54.23      0.00
  111                177.42    145.92     58.89      0.00
  113                 25.01    145.92     62.36      0.00
  115                 65.13    146.79     57.54      0.00
  117                147.14    149.96     59.08      0.00
  119                220.16    157.42     67.34      0.00
  120                  0.00    155.01     67.17      0.00
  121                 52.04    160.92     70.59      0.00
  123                  0.00    165.38     66.89      0.00
  125                 57.00    160.36     64.72      0.00
  127                 22.08    158.72     44.51      0.00
  129                  0.00    158.71     46.67      0.00
  131                 53.44    158.70     66.16      0.00
  139                  7.36    153.54     53.10      0.00
  141                 12.31    149.86     63.20      0.00
  143                  7.75    140.03     62.63      0.00
  145                 34.54    150.97     64.98      0.00
  147                 10.69    151.80     57.76      0.00
  149                 33.84    152.15     58.99      0.00
  151                180.60    155.60     52.91      0.00
  153                 55.21    155.70     38.78      0.00
  157                 64.74    154.92     61.45      0.00
  159                 51.65    151.46     63.03      0.00
  161                 19.75    149.11     62.88      0.00
  163                 11.77    148.64     62.24      0.00
  164                  0.00    148.64     62.24      0.00
  166                  3.25    148.64     65.27      0.00
  167                 18.20    146.71     65.73      0.00
  169                  0.00    146.71     65.73      0.00
  171                 49.17    145.57     64.81      0.00
  173                  0.00    145.55     64.80      0.00
  177                 72.71    145.24     59.46      0.00
  179                  0.00    145.23     59.46      0.00
  181                  0.00    145.24     59.47      0.00
  183                  0.00    145.24     58.17      0.00
  184                  0.00    144.00     55.46      0.00
  185                 32.06    144.63     55.74      0.00
  187                  0.00    145.44     57.60      0.00
  189                134.90    145.73     61.41      0.00
  191                102.38    145.79     52.34      0.00
  193                 89.14    145.88     55.41      0.00
  195                  0.00    145.95     56.53      0.00
  197                 21.30    145.82     53.22      0.00
  199                149.15    140.07     61.56      0.00
  201                 55.76    139.28     60.31      0.00
  203               4709.82    139.10     59.40      0.00
  204                  0.00    145.15     53.80      0.00
  205                 81.70    140.05     51.58      0.00
  206                  0.00    139.22     59.89      0.00
  207                 86.74    139.34     56.48      0.00
  208                  0.00    139.08     53.33      0.00
  209                  1.09    138.84     61.03      0.00
  211                 10.84    138.76     57.09      0.00
  213                 17.42    138.71     57.07      0.00
  215                115.24    138.54     57.00      0.00
  217                 30.27    138.52     57.42      0.00
  219                 51.65    138.51     58.28      0.00
  225                 28.50    138.51     56.55      0.00
  229                 80.22    138.65     55.53      0.00
  231                 20.60    138.65     57.91      0.00
  237                 19.51    138.76     54.06      0.00
  239                 55.76    138.77     54.50      0.00
  241                  0.00    138.77     54.50      0.00
  243                  5.43    138.77     54.06      0.00
  247                 87.97    138.78     52.34      0.00
  249                  0.00    138.78     52.34      0.00
  251                 30.20    138.81     47.15      0.00
  253                 68.15    139.03     44.64      0.00
  255                 50.49    139.07     48.56      0.00
  257                  0.00    151.91     58.46      0.00
  259                  0.00    151.48     54.80      0.00
  261                  0.00    149.91     64.96      0.00
  263                  0.00    149.75     64.89      0.00
  265                  0.00    147.32     63.84      0.00
  267                  0.00    145.88     54.11      0.00
  269                  0.00    146.08     63.30      0.00
  271                  0.00    145.33     60.37      0.00
  273                  0.00    140.04     57.22      0.00
  275                  0.00    139.31     56.03      0.00
  River           -13160.88    220.00      0.00      0.00  Reservoir
  Lake                 0.00    167.00      0.00      0.00  Reservoir
  1                  251.16    145.00      5.68      0.00  Tank
  2                 -375.35    140.00     10.18      0.00  Tank
  3                 2219.99    158.00     12.57      0.00  Tank
   
   
  Link Results at 0:00:00 hrs:
  ----------------------------------------------
                       Flow  Velocity  Headloss
  Link                  gpm       fps   /1000ft
  ----------------------------------------------
  20               -2219.99      0.09      0.00
  40                -251.16      0.01      0.00
  50                 375.35      0.02      0.00
  60               13160.88      9.33      8.93
  101                  0.00      0.00      0.00
  103                181.38      0.29      0.03
  105               -418.82      1.19      0.51
  107                 46.34      0.13      0.01
  109                 14.88      0.02      0.00
  111               -274.37      0.78      0.23
  112                520.29      1.48      0.76
  113                -29.72      0.08      0.00
  114                132.94      0.85      0.44
  115                -21.96      0.14      0.02
  116                 78.21      0.22      0.02
  117                634.37      1.80      1.09
  119               -740.31      2.10      1.45
  120               1152.92      3.27      3.30
  121               1035.43      2.94      2.70
  122                368.90      2.35      2.88
  123               9883.69      4.49      1.75
  125              13160.88      5.97      2.97
  129               2856.26      2.03      0.60
  131               2588.48      1.84      0.50
  133              -2219.99      2.27      0.92
  135                346.41      0.25      0.01
  137                 53.44      0.09      0.00
  145                292.98      1.87      1.88
  147                285.61      1.82      1.79
  149               -596.80      3.81      7.02
  151               -589.05      3.76      6.85
  153                323.50      0.92      0.31
  155                358.04      1.02      0.38
  159               -368.72      1.05      0.40
  161               -402.56      2.57      3.39
  163               -155.56      0.44      0.08
  169                210.77      1.35      1.02
  171                427.60      1.21      0.53
  173               8083.00      3.67      1.21
  175               8018.26      3.64      1.19
  177               7966.61      3.62      1.17
  179               7699.52      3.49      1.10
  180                  3.25      0.01      0.00
  181                  3.25      0.01      0.00
  183               7486.42      3.40      1.05
  185                -18.20      0.12      0.01
  186                365.13      2.33      2.83
  187               6874.35      3.12      0.89
  189               4818.54      2.19      0.46
  191              -2006.64      1.42      0.31
  193              -1956.07      1.39      0.30
  195                205.93      0.58      0.14
  197                133.22      0.38      0.06
  199               -117.94      0.33      0.05
  201               -251.16      0.71      0.20
  202                562.63      3.59      6.30
  203                229.56      1.47      1.20
  204                562.63      1.60      0.87
  205                365.13      1.04      0.39
  207                347.50      0.99      0.36
  209                155.65      0.99      0.58
  211                593.87      1.68      0.97
  213                209.48      0.59      0.14
  215                199.54      0.57      0.13
  217               -234.95      0.67      0.17
  219               -247.35      0.70      0.19
  221                247.35      1.58      1.37
  223                 76.91      0.22      0.02
  225                 98.21      0.28      0.03
  229               4818.54      3.42      1.37
  231               4580.96      3.25      1.25
  233               4709.82      3.34      1.53
  235                 88.43      0.25      0.03
  237                455.14      1.29      0.59
  238                298.00      0.85      0.27
  239                -70.40      0.20      0.02
  240                298.00      0.85      0.27
  241                298.00      0.85      0.27
  243                296.91      0.47      0.07
  245                271.99      0.43      0.06
  247                225.66      0.36      0.04
  249                110.43      0.18      0.01
  251                 51.65      0.11      0.00
  257                 28.50      0.08      0.00
  261                 28.90      0.18      0.03
  263                 20.60      0.06      0.00
  269                 14.08      0.04      0.00
  271                 71.92      0.46      0.14
  273                -77.35      0.22      0.02
  275                -46.51      0.13      0.01
  277                  5.43      0.02      0.00
  281                -51.94      0.21      0.03
  283                -86.60      0.25      0.03
  285                 20.34      0.06      0.00
  287               -160.26      0.65      0.21
  289                375.35      1.53      1.00
  291                 68.15      0.28      0.04
  293                 96.46      0.62      0.24
  295                -66.26      0.19      0.02
  297                486.40      3.10      4.81
  299                233.69      1.49      1.24
  301                233.69      1.49      1.24
  303                252.70      1.61      1.43
  305                147.98      0.42      0.07
  307                400.68      1.14      0.47
  309                198.07      1.26      0.91
  311                  1.47      0.00      0.00
  313                438.51      1.24      0.55
  315              -2162.00      1.53      0.36
  317                114.22      0.73      0.33
  319                -25.79      0.07      0.00
  321               7684.49      3.49      1.10
  323               -184.62      0.52      0.11
  325                155.36      0.99      0.58
  329              13160.88      5.97      3.01
  330                  0.00      0.00      0.00
  333                 -0.00      0.00      0.00
  10                   0.00      0.00      0.00  Pump
  335              13160.88      0.00    -93.42  Pump
   
   
  Node Results at 0:05:00 hrs:
  --------------------------------------------------------
                     Demand      Head  Pressure  Chemical
  Node                  gpm        ft       psi      mg/L
  --------------------------------------------------------
  10                   0.00    145.52     -0.64      0.00
  15                 589.05    128.78     41.93      0.00
  20                   0.00    158.07     12.60      0.00
  35                1956.07    145.26     57.52      0.00
  40                   0.00    145.03      5.69      0.00
  50                   0.00    139.87     10.13      0.00
  60                   0.00    209.01     90.56      0.00
  601                  0.00    302.44    131.05      0.00
  61                   0.00    302.44    131.05      0.00
  101                237.44    145.52     44.85      0.00
  103                166.50    145.48     44.41      0.00
  105                169.21    146.80     51.26      0.00
  107                 68.30    146.79     54.07      0.00
  109                289.25    145.48     54.24      0.00
  111                177.42    145.94     58.90      0.00
  113                 25.01    145.95     62.37      0.00
  115                 65.13    146.82     57.55      0.00
  117                147.14    149.99     59.10      0.00
  119                220.16    157.47     67.36      0.00
  120                  0.00    155.05     67.19      0.00
  121                 52.04    160.97     70.61      0.00
  123                  0.00    165.43     66.91      0.00
  125                 57.00    160.41     64.74      0.00
  127                 22.08    158.79     44.54      0.00
  129                  0.00    158.78     46.70      0.00
  131                 53.44    158.76     66.19      0.00
  139                  7.36    153.60     53.12      0.00
  141                 12.31    149.92     63.23      0.00
  143                  7.75    140.09     62.65      0.00
  145                 34.54    151.02     65.00      0.00
  147                 10.69    151.85     57.78      0.00
  149                 33.84    152.20     59.02      0.00
  151                180.60    155.65     52.93      0.00
  153                 55.21    155.75     38.80      0.00
  157                 64.74    154.96     61.47      0.00
  159                 51.65    151.49     63.04      0.00
  161                 19.75    149.14     62.89      0.00
  163                 11.77    148.67     62.25      0.00
  164                  0.00    148.67     62.25      0.00
  166                  3.25    148.67     65.29      0.00
  167                 18.20    146.73     65.75      0.00
  169                  0.00    146.73     65.75      0.00
  171                 49.17    145.60     64.82      0.00
  173                  0.00    145.57     64.81      0.00
  177                 72.71    145.26     59.47      0.00
  179                  0.00    145.26     59.47      0.00
  181                  0.00    145.26     59.48      0.00
  183                  0.00    145.27     58.18      0.00
  184                  0.00    144.02     55.47      0.00
  185                 32.06    144.66     55.75      0.00
  187                  0.00    145.46     57.61      0.00
  189                134.90    145.75     61.42      0.00
  191                102.38    145.82     52.35      0.00
  193                 89.14    145.91     55.42      0.00
  195                  0.00    145.98     56.54      0.00
  197                 21.30    145.85     53.23      0.00
  199                149.15    140.07     61.56      0.00
  201                 55.76    139.28     60.31      0.00
  203               4709.82    139.10     59.40      0.00
  204                  0.00    145.18     53.81      0.00
  205                 81.70    140.05     51.58      0.00
  206                  0.00    139.20     59.88      0.00
  207                 86.74    139.33     56.47      0.00
  208                  0.00    139.06     53.32      0.00
  209                  1.09    138.80     61.01      0.00
  211                 10.84    138.72     57.07      0.00
  213                 17.42    138.66     57.05      0.00
  215                115.24    138.49     56.97      0.00
  217                 30.27    138.47     57.40      0.00
  219                 51.65    138.46     58.26      0.00
  225                 28.50    138.47     56.53      0.00
  229                 80.22    138.60     55.51      0.00
  231                 20.60    138.60     57.89      0.00
  237                 19.51    138.71     54.04      0.00
  239                 55.76    138.72     54.47      0.00
  241                  0.00    138.72     54.47      0.00
  243                  5.43    138.72     54.04      0.00
  247                 87.97    138.73     52.31      0.00
  249                  0.00    138.73     52.31      0.00
  251                 30.20    138.75     47.12      0.00
  253                 68.15    138.95     44.61      0.00
  255                 50.49    138.99     48.53      0.00
  257                  0.00    151.95     58.47      0.00
  259                  0.00    151.52     54.82      0.00
  261                  0.00    149.95     64.97      0.00
  263                  0.00    149.78     64.90      0.00
  265                  0.00    147.35     63.85      0.00
  267                  0.00    145.91     54.12      0.00
  269                  0.00    146.11     63.31      0.00
  271                  0.00    145.36     60.38      0.00
  273                  0.00    140.05     57.22      0.00
  275                  0.00    139.31     56.03      0.00
  River           -13159.25    220.00      0.00      0.00  Reservoir
  Lake                 0.00    167.00      0.00      0.00  Reservoir
  1                  248.46    145.03      5.69      0.00  Tank
  2                 -364.31    139.87     10.13      0.00  Tank
  3                 2210.02    158.07     12.60      0.00  Tank
   
   
  Link Results at 0:05:00 hrs:
  ----------------------------------------------
                       Flow  Velocity  Headloss
  Link                  gpm       fps   /1000ft
  ----------------------------------------------
  20               -2210.02      0.09      0.00
  40                -248.46      0.01      0.00
  50                 364.31      0.02      0.00
  60               13159.25      9.33      8.93
  101                  0.00      0.00      0.00
  103                181.65      0.29      0.03
  105               -419.09      1.19      0.51
  107                 46.53      0.13      0.01
  109                 15.15      0.02      0.00
  111               -274.10      0.78      0.23
  112                520.91      1.48      0.76
  113                -29.20      0.08      0.00
  114                133.12      0.85      0.44
  115                -21.77      0.14      0.02
  116                 78.90      0.22      0.02
  117                634.83      1.80      1.09
  119               -740.92      2.10      1.45
  120               1153.72      3.27      3.30
  121               1036.15      2.94      2.71
  122                369.17      2.36      2.89
  123               9891.41      4.49      1.75
  125              13159.25      5.97      2.97
  129               2846.63      2.02      0.60
  131               2578.71      1.83      0.50
  133              -2210.02      2.26      0.91
  135                346.62      0.25      0.01
  137                 53.44      0.09      0.00
  145                293.18      1.87      1.88
  147                285.82      1.82      1.80
  149               -596.80      3.81      7.02
  151               -589.05      3.76      6.85
  153                323.29      0.92      0.31
  155                357.83      1.02      0.38
  159               -368.52      1.05      0.40
  161               -402.36      2.57      3.38
  163               -155.70      0.44      0.08
  169                210.91      1.35      1.02
  171                427.26      1.21      0.52
  173               8090.27      3.67      1.21
  175               8025.54      3.64      1.19
  177               7973.89      3.62      1.18
  179               7706.65      3.50      1.10
  180                  3.25      0.01      0.00
  181                  3.25      0.01      0.00
  183               7493.55      3.40      1.05
  185                -18.20      0.12      0.01
  186                365.89      2.34      2.84
  187               6881.37      3.12      0.89
  189               4828.26      2.19      0.46
  191              -2003.94      1.42      0.31
  193              -1956.07      1.39      0.30
  195                203.38      0.58      0.13
  197                130.67      0.37      0.06
  199               -117.79      0.33      0.05
  201               -248.46      0.70      0.19
  202                563.95      3.60      6.32
  203                230.12      1.47      1.20
  204                563.95      1.60      0.88
  205                365.89      1.04      0.39
  207                347.92      0.99      0.36
  209                155.88      0.99      0.58
  211                593.98      1.68      0.97
  213                210.01      0.60      0.14
  215                200.23      0.57      0.13
  217               -235.10      0.67      0.17
  219               -247.48      0.70      0.19
  221                247.48      1.58      1.38
  223                 77.29      0.22      0.02
  225                 98.59      0.28      0.03
  229               4828.26      3.42      1.38
  231               4588.55      3.25      1.25
  233               4709.82      3.34      1.53
  235                 90.56      0.26      0.03
  237                458.26      1.30      0.60
  238                309.04      0.88      0.29
  239                -62.48      0.18      0.01
  240                309.04      0.88      0.29
  241                309.04      0.88      0.29
  243                307.95      0.49      0.07
  245                272.51      0.43      0.06
  247                225.66      0.36      0.04
  249                110.43      0.18      0.01
  251                 51.65      0.11      0.00
  257                 28.50      0.08      0.00
  261                 29.42      0.19      0.03
  263                 20.60      0.06      0.00
  269                 24.60      0.07      0.00
  271                 71.40      0.46      0.14
  273                -66.31      0.19      0.02
  275                -42.38      0.12      0.01
  277                  5.43      0.02      0.00
  281                -47.80      0.20      0.02
  283                -79.70      0.23      0.02
  285                 17.49      0.05      0.00
  287               -153.27      0.63      0.19
  289                364.31      1.49      0.95
  291                 68.15      0.28      0.04
  293                 92.41      0.59      0.22
  295                -62.21      0.18      0.01
  297                486.74      3.11      4.81
  299                233.86      1.49      1.24
  301                233.86      1.49      1.24
  303                252.88      1.61      1.43
  305                148.09      0.42      0.07
  307                400.97      1.14      0.47
  309                198.08      1.26      0.91
  311                  2.15      0.01      0.00
  313                438.46      1.24      0.55
  315              -2159.45      1.53      0.36
  317                114.55      0.73      0.33
  319                -23.99      0.07      0.00
  321               7691.63      3.49      1.10
  323               -177.04      0.50      0.10
  325                155.51      0.99      0.58
  329              13159.25      5.97      3.01
  330                  0.00      0.00      0.00
  333                 -0.00      0.00      0.00
  10                   0.00      0.00      0.00  Pump
  335              13159.25      0.00    -93.43  Pump
   
   
  Node Results at 0:10:00 hrs:
  --------------------------------------------------------
                     Demand      Head  Pressure  Chemical
  Node                  gpm        ft       psi      mg/L
  --------------------------------------------------------
  10                   0.00    145.55     -0.63      0.00
  15                 589.05    128.83     41.96      0.00
  20                   0.00    158.14     12.63      0.00
  35                1956.07    145.28     57.53      0.00
  40                   0.00    145.06      5.70      0.00
  50                   0.00    139.75     10.07      0.00
  60                   0.00    209.01     90.56      0.00
  601                  0.00    302.46    131.05      0.00
  61                   0.00    302.46    131.05      0.00
  101                237.44    145.55     44.87      0.00
  103                166.50    145.51     44.42      0.00
  105                169.21    146.84     51.27      0.00
  107                 68.30    146.82     54.09      0.00
  109                289.25    145.51     54.25      0.00
  111                177.42    145.97     58.92      0.00
  113                 25.01    145.98     62.39      0.00
  115                 65.13    146.85     57.56      0.00
  117                147.14    150.03     59.11      0.00
  119                220.16    157.51     67.38      0.00
  120                  0.00    155.10     67.20      0.00
  121                 52.04    161.02     70.64      0.00
  123                  0.00    165.48     66.93      0.00
  125                 57.00    160.46     64.76      0.00
  127                 22.08    158.85     44.57      0.00
  129                  0.00    158.84     46.73      0.00
  131                 53.44    158.82     66.22      0.00
  139                  7.36    153.66     53.15      0.00
  141                 12.31    149.97     63.25      0.00
  143                  7.75    140.14     62.67      0.00
  145                 34.54    151.07     65.02      0.00
  147                 10.69    151.90     57.80      0.00
  149                 33.84    152.25     59.04      0.00
  151                180.60    155.70     52.95      0.00
  153                 55.21    155.79     38.82      0.00
  157                 64.74    155.00     61.48      0.00
  159                 51.65    151.53     63.06      0.00
  161                 19.75    149.17     62.90      0.00
  163                 11.77    148.70     62.26      0.00
  164                  0.00    148.70     62.26      0.00
  166                  3.25    148.70     65.30      0.00
  167                 18.20    146.76     65.76      0.00
  169                  0.00    146.76     65.76      0.00
  171                 49.17    145.62     64.83      0.00
  173                  0.00    145.60     64.82      0.00
  177                 72.71    145.29     59.49      0.00
  179                  0.00    145.28     59.48      0.00
  181                  0.00    145.29     59.49      0.00
  183                  0.00    145.29     58.19      0.00
  184                  0.00    144.04     55.48      0.00
  185                 32.06    144.68     55.76      0.00
  187                  0.00    145.49     57.62      0.00
  189                134.90    145.78     61.43      0.00
  191                102.38    145.85     52.36      0.00
  193                 89.14    145.94     55.44      0.00
  195                  0.00    146.01     56.55      0.00
  197                 21.30    145.87     53.24      0.00
  199                149.15    140.07     61.56      0.00
  201                 55.76    139.28     60.31      0.00
  203               4709.82    139.10     59.40      0.00
  204                  0.00    145.20     53.82      0.00
  205                 81.70    140.05     51.59      0.00
  206                  0.00    139.19     59.88      0.00
  207                 86.74    139.33     56.47      0.00
  208                  0.00    139.03     53.31      0.00
  209                  1.09    138.76     60.99      0.00
  211                 10.84    138.67     57.05      0.00
  213                 17.42    138.61     57.03      0.00
  215                115.24    138.44     56.95      0.00
  217                 30.27    138.43     57.38      0.00
  219                 51.65    138.42     58.24      0.00
  225                 28.50    138.42     56.51      0.00
  229                 80.22    138.55     55.49      0.00
  231                 20.60    138.55     57.87      0.00
  237                 19.51    138.66     54.01      0.00
  239                 55.76    138.67     54.45      0.00
  241                  0.00    138.67     54.45      0.00
  243                  5.43    138.66     54.02      0.00
  247                 87.97    138.67     52.29      0.00
  249                  0.00    138.67     52.29      0.00
  251                 30.20    138.69     47.10      0.00
  253                 68.15    138.87     44.57      0.00
  255                 50.49    138.92     48.49      0.00
  257                  0.00    151.99     58.49      0.00
  259                  0.00    151.55     54.84      0.00
  261                  0.00    149.98     64.99      0.00
  263                  0.00    149.82     64.92      0.00
  265                  0.00    147.38     63.86      0.00
  267                  0.00    145.94     54.14      0.00
  269                  0.00    146.13     63.32      0.00
  271                  0.00    145.38     60.39      0.00
  273                  0.00    140.05     57.22      0.00
  275                  0.00    139.31     56.03      0.00
  River           -13157.62    220.00      0.00      0.00  Reservoir
  Lake                 0.00    167.00      0.00      0.00  Reservoir
  1                  245.94    145.06      5.70      0.00  Tank
  2                 -353.52    139.75     10.07      0.00  Tank
  3                 2200.12    158.14     12.63      0.00  Tank
   
   
  Link Results at 0:10:00 hrs:
  ----------------------------------------------
                       Flow  Velocity  Headloss
  Link                  gpm       fps   /1000ft
  ----------------------------------------------
  20               -2200.12      0.09      0.00
  40                -245.94      0.01      0.00
  50                 353.52      0.01      0.00
  60               13157.62      9.33      8.93
  101                  0.00      0.00      0.00
  103                181.92      0.29      0.03
  105               -419.35      1.19      0.51
  107                 46.72      0.13      0.01
  109                 15.42      0.02      0.00
  111               -273.83      0.78      0.23
  112                521.53      1.48      0.76
  113                -28.70      0.08      0.00
  114                133.29      0.85      0.44
  115                -21.58      0.14      0.02
  116                 79.59      0.23      0.02
  117                635.28      1.80      1.09
  119               -741.53      2.10      1.46
  120               1154.50      3.28      3.31
  121               1036.87      2.94      2.71
  122                369.44      2.36      2.89
  123               9899.07      4.49      1.75
  125              13157.62      5.97      2.97
  129               2837.07      2.01      0.60
  131               2569.01      1.82      0.50
  133              -2200.12      2.25      0.91
  135                346.82      0.25      0.01
  137                 53.44      0.09      0.00
  145                293.38      1.87      1.89
  147                286.02      1.83      1.80
  149               -596.80      3.81      7.02
  151               -589.05      3.76      6.85
  153                323.09      0.92      0.31
  155                357.63      1.01      0.38
  159               -368.32      1.04      0.40
  161               -402.16      2.57      3.38
  163               -155.84      0.44      0.08
  169                211.05      1.35      1.02
  171                426.92      1.21      0.52
  173               8097.49      3.68      1.21
  175               8032.75      3.65      1.19
  177               7981.10      3.62      1.18
  179               7713.73      3.50      1.11
  180                  3.25      0.01      0.00
  181                  3.25      0.01      0.00
  183               7500.61      3.40      1.05
  185                -18.20      0.12      0.01
  186                366.63      2.34      2.85
  187               6888.33      3.13      0.90
  189               4837.77      2.20      0.47
  191              -2001.38      1.42      0.31
  193              -1956.07      1.39      0.30
  195                200.98      0.57      0.13
  197                128.26      0.36      0.06
  199               -117.68      0.33      0.05
  201               -245.94      0.70      0.19
  202                565.23      3.61      6.35
  203                230.67      1.47      1.21
  204                565.23      1.60      0.88
  205                366.63      1.04      0.40
  207                348.34      0.99      0.36
  209                156.09      1.00      0.59
  211                594.09      1.69      0.97
  213                210.54      0.60      0.14
  215                200.91      0.57      0.13
  217               -235.25      0.67      0.17
  219               -247.62      0.70      0.19
  221                247.62      1.58      1.38
  223                 77.66      0.22      0.02
  225                 98.96      0.28      0.03
  229               4837.77      3.43      1.38
  231               4596.10      3.26      1.26
  233               4709.82      3.34      1.53
  235                 92.52      0.26      0.03
  237                461.17      1.31      0.60
  238                319.83      0.91      0.31
  239                -54.60      0.15      0.01
  240                319.83      0.91      0.31
  241                319.83      0.91      0.31
  243                318.74      0.51      0.08
  245                273.22      0.44      0.06
  247                225.66      0.36      0.04
  249                110.43      0.18      0.01
  251                 51.65      0.11      0.00
  257                 28.50      0.08      0.00
  261                 30.13      0.19      0.03
  263                 20.60      0.06      0.00
  269                 34.69      0.10      0.01
  271                 70.69      0.45      0.14
  273                -55.52      0.16      0.01
  275                -38.34      0.11      0.01
  277                  5.43      0.02      0.00
  281                -43.76      0.18      0.02
  283                -72.94      0.21      0.02
  285                 14.70      0.04      0.00
  287               -146.44      0.60      0.18
  289                353.52      1.44      0.90
  291                 68.15      0.28      0.04
  293                 88.44      0.56      0.20
  295                -58.24      0.17      0.01
  297                487.08      3.11      4.82
  299                234.02      1.49      1.24
  301                234.02      1.49      1.24
  303                253.06      1.62      1.43
  305                148.21      0.42      0.07
  307                401.26      1.14      0.47
  309                198.10      1.26      0.91
  311                  2.81      0.01      0.00
  313                438.42      1.24      0.55
  315              -2157.05      1.53      0.36
  317                114.88      0.73      0.33
  319                -22.37      0.06      0.00
  321               7698.71      3.49      1.10
  323               -169.48      0.48      0.09
  325                155.66      0.99      0.58
  329              13157.62      5.97      3.01
  330                  0.00      0.00      0.00
  333                 -0.00      0.00      0.00
  10                   0.00      0.00      0.00  Pump
  335              13157.62      0.00    -93.45  Pump
   
   
  Node Results at 0:15:00 hrs:
  --------------------------------------------------------
                     Demand      Head  Pressure  Chemical
  Node                  gpm        ft       psi      mg/L
  --------------------------------------------------------
  10                   0.00    145.58     -0.62      0.00
  15                 589.05    128.88     41.98      0.00
  20                   0.00    158.21     12.66      0.00
  35                1956.07    145.30     57.54      0.00
  40                   0.00    145.09      5.71      0.00
  50                   0.00    139.63     10.02      0.00
  60                   0.00    209.01     90.57      0.00
  601                  0.00    302.47    131.06      0.00
  61                   0.00    302.47    131.06      0.00
  101                237.44    145.58     44.88      0.00
  103                166.50    145.54     44.43      0.00
  105                169.21    146.87     51.29      0.00
  107                 68.30    146.85     54.10      0.00
  109                289.25    145.54     54.27      0.00
  111                177.42    146.00     58.93      0.00
  113                 25.01    146.00     62.40      0.00
  115                 65.13    146.88     57.58      0.00
  117                147.14    150.06     59.13      0.00
  119                220.16    157.55     67.40      0.00
  120                  0.00    155.14     67.22      0.00
  121                 52.04    161.07     70.66      0.00
  123                  0.00    165.52     66.95      0.00
  125                 57.00    160.52     64.78      0.00
  127                 22.08    158.92     44.59      0.00
  129                  0.00    158.90     46.76      0.00
  131                 53.44    158.89     66.25      0.00
  139                  7.36    153.71     53.17      0.00
  141                 12.31    150.02     63.27      0.00
  143                  7.75    140.19     62.69      0.00
  145                 34.54    151.12     65.05      0.00
  147                 10.69    151.95     57.82      0.00
  149                 33.84    152.30     59.06      0.00
  151                180.60    155.74     52.97      0.00
  153                 55.21    155.84     38.84      0.00
  157                 64.74    155.04     61.50      0.00
  159                 51.65    151.56     63.07      0.00
  161                 19.75    149.20     62.92      0.00
  163                 11.77    148.73     62.28      0.00
  164                  0.00    148.73     62.28      0.00
  166                  3.25    148.73     65.31      0.00
  167                 18.20    146.78     65.77      0.00
  169                  0.00    146.78     65.77      0.00
  171                 49.17    145.64     64.84      0.00
  173                  0.00    145.62     64.83      0.00
  177                 72.71    145.31     59.50      0.00
  179                  0.00    145.31     59.50      0.00
  181                  0.00    145.31     59.50      0.00
  183                  0.00    145.32     58.20      0.00
  184                  0.00    144.06     55.49      0.00
  185                 32.06    144.70     55.77      0.00
  187                  0.00    145.51     57.63      0.00
  189                134.90    145.80     61.44      0.00
  191                102.38    145.88     52.38      0.00
  193                 89.14    145.97     55.45      0.00
  195                  0.00    146.03     56.56      0.00
  197                 21.30    145.90     53.25      0.00
  199                149.15    140.08     61.56      0.00
  201                 55.76    139.28     60.31      0.00
  203               4709.82    139.10     59.41      0.00
  204                  0.00    145.23     53.83      0.00
  205                 81.70    140.06     51.59      0.00
  206                  0.00    139.18     59.87      0.00
  207                 86.74    139.32     56.47      0.00
  208                  0.00    139.01     53.30      0.00
  209                  1.09    138.72     60.97      0.00
  211                 10.84    138.62     57.03      0.00
  213                 17.42    138.57     57.01      0.00
  215                115.24    138.40     56.93      0.00
  217                 30.27    138.38     57.36      0.00
  219                 51.65    138.37     58.22      0.00
  225                 28.50    138.38     56.49      0.00
  229                 80.22    138.50     55.46      0.00
  231                 20.60    138.50     57.85      0.00
  237                 19.51    138.61     53.99      0.00
  239                 55.76    138.61     54.43      0.00
  241                  0.00    138.61     54.43      0.00
  243                  5.43    138.61     53.99      0.00
  247                 87.97    138.62     52.26      0.00
  249                  0.00    138.62     52.26      0.00
  251                 30.20    138.64     47.07      0.00
  253                 68.15    138.80     44.54      0.00
  255                 50.49    138.84     48.46      0.00
  257                  0.00    152.02     58.51      0.00
  259                  0.00    151.59     54.85      0.00
  261                  0.00    150.01     65.00      0.00
  263                  0.00    149.85     64.93      0.00
  265                  0.00    147.40     63.87      0.00
  267                  0.00    145.97     54.15      0.00
  269                  0.00    146.16     63.33      0.00
  271                  0.00    145.41     60.41      0.00
  273                  0.00    140.05     57.22      0.00
  275                  0.00    139.31     56.03      0.00
  River           -13156.00    220.00      0.00      0.00  Reservoir
  Lake                 0.00    167.00      0.00      0.00  Reservoir
  1                  243.58    145.09      5.71      0.00  Tank
  2                 -342.95    139.63     10.02      0.00  Tank
  3                 2190.29    158.21     12.66      0.00  Tank
   
   
  Link Results at 0:15:00 hrs:
  ----------------------------------------------
                       Flow  Velocity  Headloss
  Link                  gpm       fps   /1000ft
  ----------------------------------------------
  20               -2190.29      0.09      0.00
  40                -243.58      0.01      0.00
  50                 342.95      0.01      0.00
  60               13156.00      9.33      8.92
  101                  0.00      0.00      0.00
  103                182.18      0.29      0.03
  105               -419.62      1.19      0.51
  107                 46.90      0.13      0.01
  109                 15.68      0.03      0.00
  111               -273.57      0.78      0.23
  112                522.14      1.48      0.76
  113                -28.19      0.08      0.00
  114                133.47      0.85      0.44
  115                -21.40      0.14      0.01
  116                 80.26      0.23      0.02
  117                635.73      1.80      1.10
  119               -742.13      2.11      1.46
  120               1155.29      3.28      3.31
  121               1037.59      2.94      2.71
  122                369.71      2.36      2.89
  123               9906.68      4.50      1.76
  125              13156.00      5.97      2.97
  129               2827.57      2.01      0.59
  131               2559.38      1.82      0.49
  133              -2190.29      2.24      0.90
  135                347.02      0.25      0.01
  137                 53.44      0.09      0.00
  145                293.58      1.87      1.89
  147                286.22      1.83      1.80
  149               -596.80      3.81      7.02
  151               -589.05      3.76      6.85
  153                322.89      0.92      0.31
  155                357.43      1.01      0.38
  159               -368.12      1.04      0.40
  161               -401.96      2.57      3.38
  163               -155.98      0.44      0.08
  169                211.19      1.35      1.03
  171                426.58      1.21      0.52
  173               8104.65      3.68      1.21
  175               8039.91      3.65      1.19
  177               7988.26      3.63      1.18
  179               7720.76      3.50      1.11
  180                  3.25      0.01      0.00
  181                  3.25      0.01      0.00
  183               7507.62      3.41      1.05
  185                -18.20      0.12      0.01
  186                367.36      2.34      2.86
  187               6895.22      3.13      0.90
  189               4847.08      2.20      0.47
  191              -1998.96      1.42      0.31
  193              -1956.07      1.39      0.30
  195                198.71      0.56      0.13
  197                126.00      0.36      0.05
  199               -117.59      0.33      0.05
  201               -243.58      0.69      0.19
  202                566.49      3.62      6.38
  203                231.19      1.48      1.21
  204                566.49      1.61      0.88
  205                367.36      1.04      0.40
  207                348.78      0.99      0.36
  209                156.30      1.00      0.59
  211                594.20      1.69      0.97
  213                211.06      0.60      0.14
  215                201.60      0.57      0.13
  217               -235.40      0.67      0.17
  219               -247.75      0.70      0.19
  221                247.75      1.58      1.38
  223                 78.04      0.22      0.02
  225                 99.34      0.28      0.04
  229               4847.08      3.44      1.39
  231               4603.64      3.26      1.26
  233               4709.82      3.34      1.53
  235                 94.29      0.27      0.03
  237                463.87      1.32      0.61
  238                330.40      0.94      0.33
  239                -46.73      0.13      0.01
  240                330.40      0.94      0.33
  241                330.40      0.94      0.33
  243                329.31      0.53      0.08
  245                274.09      0.44      0.06
  247                225.66      0.36      0.04
  249                110.43      0.18      0.01
  251                 51.65      0.11      0.00
  257                 28.50      0.08      0.00
  261                 31.00      0.20      0.03
  263                 20.60      0.06      0.00
  269                 44.39      0.13      0.01
  271                 69.83      0.45      0.13
  273                -44.95      0.13      0.01
  275                -34.38      0.10      0.00
  277                  5.43      0.02      0.00
  281                -39.80      0.16      0.02
  283                -66.33      0.19      0.02
  285                 11.97      0.03      0.00
  287               -139.75      0.57      0.16
  289                342.95      1.40      0.85
  291                 68.15      0.28      0.04
  293                 84.56      0.54      0.19
  295                -54.36      0.15      0.01
  297                487.41      3.11      4.83
  299                234.18      1.49      1.24
  301                234.18      1.49      1.24
  303                253.23      1.62      1.44
  305                148.32      0.42      0.07
  307                401.55      1.14      0.47
  309                198.12      1.26      0.91
  311                  3.48      0.01      0.00
  313                438.38      1.24      0.55
  315              -2154.78      1.53      0.36
  317                115.21      0.74      0.33
  319                -20.92      0.06      0.00
  321               7705.74      3.50      1.10
  323               -161.94      0.46      0.09
  325                155.82      0.99      0.58
  329              13156.00      5.97      3.01
  330                  0.00      0.00      0.00
  333                 -0.00      0.00      0.00
  10                   0.00      0.00      0.00  Pump
  335              13156.00      0.00    -93.46  Pump
   
   
  Node Results at 0:20:00 hrs:
  --------------------------------------------------------
                     Demand      Head  Pressure  Chemical
  Node                  gpm        ft       psi      mg/L
  --------------------------------------------------------
  10                   0.00    145.61     -0.60      0.00
  15                 589.05    128.93     42.00      0.00
  20                   0.00    158.28     12.69      0.00
  35                1956.07    145.33     57.56      0.00
  40                   0.00    145.12      5.73      0.00
  50                   0.00    139.51      9.97      0.00
  60                   0.00    209.02     90.57      0.00
  601                  0.00    302.49    131.07      0.00
  61                   0.00    302.49    131.07      0.00
  101                237.44    145.61     44.89      0.00
  103                166.50    145.57     44.44      0.00
  105                169.21    146.90     51.30      0.00
  107                 68.30    146.88     54.11      0.00
  109                289.25    145.57     54.28      0.00
  111                177.42    146.03     58.94      0.00
  113                 25.01    146.03     62.41      0.00
  115                 65.13    146.91     57.59      0.00
  117                147.14    150.10     59.14      0.00
  119                220.16    157.60     67.42      0.00
  120                  0.00    155.18     67.24      0.00
  121                 52.04    161.12     70.68      0.00
  123                  0.00    165.57     66.98      0.00
  125                 57.00    160.57     64.81      0.00
  127                 22.08    158.98     44.62      0.00
  129                  0.00    158.97     46.78      0.00
  131                 53.44    158.95     66.27      0.00
  139                  7.36    153.77     53.20      0.00
  141                 12.31    150.07     63.29      0.00
  143                  7.75    140.24     62.72      0.00
  145                 34.54    151.17     65.07      0.00
  147                 10.69    152.00     57.85      0.00
  149                 33.84    152.35     59.08      0.00
  151                180.60    155.79     52.99      0.00
  153                 55.21    155.89     38.86      0.00
  157                 64.74    155.08     61.52      0.00
  159                 51.65    151.60     63.09      0.00
  161                 19.75    149.24     62.93      0.00
  163                 11.77    148.76     62.29      0.00
  164                  0.00    148.76     62.29      0.00
  166                  3.25    148.76     65.32      0.00
  167                 18.20    146.81     65.78      0.00
  169                  0.00    146.81     65.78      0.00
  171                 49.17    145.67     64.85      0.00
  173                  0.00    145.65     64.84      0.00
  177                 72.71    145.33     59.51      0.00
  179                  0.00    145.33     59.51      0.00
  181                  0.00    145.34     59.51      0.00
  183                  0.00    145.34     58.21      0.00
  184                  0.00    144.08     55.50      0.00
  185                 32.06    144.72     55.78      0.00
  187                  0.00    145.54     57.64      0.00
  189                134.90    145.83     61.46      0.00
  191                102.38    145.90     52.39      0.00
  193                 89.14    145.99     55.46      0.00
  195                  0.00    146.06     56.57      0.00
  197                 21.30    145.93     53.26      0.00
  199                149.15    140.08     61.56      0.00
  201                 55.76    139.29     60.31      0.00
  203               4709.82    139.10     59.41      0.00
  204                  0.00    145.25     53.84      0.00
  205                 81.70    140.06     51.59      0.00
  206                  0.00    139.16     59.87      0.00
  207                 86.74    139.32     56.47      0.00
  208                  0.00    138.99     53.29      0.00
  209                  1.09    138.68     60.96      0.00
  211                 10.84    138.58     57.01      0.00
  213                 17.42    138.52     56.99      0.00
  215                115.24    138.35     56.92      0.00
  217                 30.27    138.34     57.34      0.00
  219                 51.65    138.33     58.20      0.00
  225                 28.50    138.33     56.47      0.00
  229                 80.22    138.45     55.44      0.00
  231                 20.60    138.45     57.82      0.00
  237                 19.51    138.56     53.97      0.00
  239                 55.76    138.56     54.40      0.00
  241                  0.00    138.56     54.40      0.00
  243                  5.43    138.56     53.97      0.00
  247                 87.97    138.56     52.24      0.00
  249                  0.00    138.56     52.24      0.00
  251                 30.20    138.58     47.05      0.00
  253                 68.15    138.72     44.51      0.00
  255                 50.49    138.77     48.43      0.00
  257                  0.00    152.06     58.52      0.00
  259                  0.00    151.63     54.87      0.00
  261                  0.00    150.05     65.02      0.00
  263                  0.00    149.89     64.95      0.00
  265                  0.00    147.43     63.88      0.00
  267                  0.00    145.99     54.16      0.00
  269                  0.00    146.19     63.34      0.00
  271                  0.00    145.43     60.42      0.00
  273                  0.00    140.06     57.22      0.00
  275                  0.00    139.31     56.03      0.00
  River           -13154.38    220.00      0.00      0.00  Reservoir
  Lake                 0.00    167.00      0.00      0.00  Reservoir
  1                  241.38    145.12      5.73      0.00  Tank
  2                 -332.59    139.51      9.97      0.00  Tank
  3                 2180.51    158.28     12.69      0.00  Tank
   
   
  Link Results at 0:20:00 hrs:
  ----------------------------------------------
                       Flow  Velocity  Headloss
  Link                  gpm       fps   /1000ft
  ----------------------------------------------
  20               -2180.51      0.09      0.00
  40                -241.38      0.01      0.00
  50                 332.59      0.01      0.00
  60               13154.38      9.33      8.92
  101                  0.00      0.00      0.00
  103                182.45      0.29      0.03
  105               -419.88      1.19      0.51
  107                 47.09      0.13      0.01
  109                 15.95      0.03      0.00
  111               -273.30      0.78      0.23
  112                522.75      1.48      0.76
  113                -27.69      0.08      0.00
  114                133.64      0.85      0.44
  115                -21.21      0.14      0.01
  116                 80.94      0.23      0.02
  117                636.18      1.80      1.10
  119               -742.72      2.11      1.46
  120               1156.06      3.28      3.32
  121               1038.30      2.95      2.72
  122                369.98      2.36      2.90
  123               9914.23      4.50      1.76
  125              13154.38      5.97      2.97
  129               2818.13      2.00      0.59
  131               2549.81      1.81      0.49
  133              -2180.51      2.23      0.89
  135                347.22      0.25      0.01
  137                 53.44      0.09      0.00
  145                293.78      1.88      1.89
  147                286.42      1.83      1.80
  149               -596.80      3.81      7.02
  151               -589.05      3.76      6.85
  153                322.70      0.92      0.31
  155                357.23      1.01      0.38
  159               -367.92      1.04      0.40
  161               -401.76      2.56      3.37
  163               -156.11      0.44      0.08
  169                211.32      1.35      1.03
  171                426.25      1.21      0.52
  173               8111.76      3.68      1.21
  175               8047.02      3.65      1.20
  177               7995.37      3.63      1.18
  179               7727.74      3.51      1.11
  180                  3.25      0.01      0.00
  181                  3.25      0.01      0.00
  183               7514.58      3.41      1.05
  185                -18.20      0.12      0.01
  186                368.08      2.35      2.87
  187               6902.06      3.13      0.90
  189               4856.22      2.20      0.47
  191              -1996.67      1.42      0.31
  193              -1956.07      1.39      0.30
  195                196.57      0.56      0.12
  197                123.86      0.35      0.05
  199               -117.52      0.33      0.05
  201               -241.38      0.68      0.18
  202                567.71      3.62      6.40
  203                231.70      1.48      1.22
  204                567.71      1.61      0.89
  205                368.08      1.04      0.40
  207                349.22      0.99      0.36
  209                156.51      1.00      0.59
  211                594.31      1.69      0.97
  213                211.57      0.60      0.14
  215                202.28      0.57      0.13
  217               -235.54      0.67      0.17
  219               -247.88      0.70      0.19
  221                247.88      1.58      1.38
  223                 78.41      0.22      0.02
  225                 99.71      0.28      0.04
  229               4856.22      3.44      1.39
  231               4611.18      3.27      1.26
  233               4709.82      3.34      1.53
  235                 95.89      0.27      0.03
  237                466.37      1.32      0.62
  238                340.76      0.97      0.35
  239                -38.87      0.11      0.01
  240                340.76      0.97      0.35
  241                340.76      0.97      0.35
  243                339.67      0.54      0.08
  245                275.08      0.44      0.06
  247                225.66      0.36      0.04
  249                110.43      0.18      0.01
  251                 51.65      0.11      0.00
  257                 28.50      0.08      0.00
  261                 31.99      0.20      0.03
  263                 20.60      0.06      0.00
  269                 53.75      0.15      0.01
  271                 68.83      0.44      0.13
  273                -34.59      0.10      0.00
  275                -30.50      0.09      0.00
  277                  5.43      0.02      0.00
  281                -35.93      0.15      0.01
  283                -59.85      0.17      0.01
  285                  9.30      0.03      0.00
  287               -133.20      0.54      0.15
  289                332.59      1.36      0.80
  291                 68.15      0.28      0.04
  293                 80.75      0.52      0.17
  295                -50.55      0.14      0.01
  297                487.75      3.11      4.83
  299                234.34      1.50      1.24
  301                234.34      1.50      1.24
  303                253.40      1.62      1.44
  305                148.43      0.42      0.07
  307                401.84      1.14      0.47
  309                198.13      1.26      0.91
  311                  4.14      0.01      0.00
  313                438.35      1.24      0.55
  315              -2152.64      1.53      0.36
  317                115.53      0.74      0.34
  319                -19.64      0.06      0.00
  321               7712.71      3.50      1.10
  323               -154.41      0.44      0.08
  325                155.97      1.00      0.58
  329              13154.38      5.97      3.01
  330                  0.00      0.00      0.00
  333                 -0.00      0.00      0.00
  10                   0.00      0.00      0.00  Pump
  335              13154.38      0.00    -93.47  Pump
   
   
  Node Results at 0:25:00 hrs:
  --------------------------------------------------------
                     Demand      Head  Pressure  Chemical
  Node                  gpm        ft       psi      mg/L
  --------------------------------------------------------
  10                   0.00    145.63     -0.59      0.00
  15                 589.05    128.99     42.02      0.00
  20                   0.00    158.35     12.72      0.00
  35                1956.07    145.35     57.57      0.00
  40                   0.00    145.14      5.74      0.00
  50                   0.00    139.40      9.92      0.00
  60                   0.00    209.02     90.57      0.00
  601                  0.00    302.51    131.08      0.00
  61                   0.00    302.51    131.08      0.00
  101                237.44    145.63     44.90      0.00
  103                166.50    145.60     44.46      0.00
  105                169.21    146.93     51.31      0.00
  107                 68.30    146.91     54.13      0.00
  109                289.25    145.60     54.29      0.00
  111                177.42    146.06     58.95      0.00
  113                 25.01    146.06     62.42      0.00
  115                 65.13    146.94     57.60      0.00
  117                147.14    150.13     59.16      0.00
  119                220.16    157.64     67.44      0.00
  120                  0.00    155.22     67.26      0.00
  121                 52.04    161.17     70.70      0.00
  123                  0.00    165.62     67.00      0.00
  125                 57.00    160.62     64.83      0.00
  127                 22.08    159.04     44.65      0.00
  129                  0.00    159.03     46.81      0.00
  131                 53.44    159.01     66.30      0.00
  139                  7.36    153.83     53.22      0.00
  141                 12.31    150.13     63.32      0.00
  143                  7.75    140.30     62.74      0.00
  145                 34.54    151.22     65.09      0.00
  147                 10.69    152.05     57.87      0.00
  149                 33.84    152.40     59.10      0.00
  151                180.60    155.84     53.01      0.00
  153                 55.21    155.93     38.88      0.00
  157                 64.74    155.12     61.54      0.00
  159                 51.65    151.63     63.10      0.00
  161                 19.75    149.27     62.94      0.00
  163                 11.77    148.79     62.30      0.00
  164                  0.00    148.79     62.30      0.00
  166                  3.25    148.79     65.34      0.00
  167                 18.20    146.84     65.79      0.00
  169                  0.00    146.84     65.79      0.00
  171                 49.17    145.69     64.86      0.00
  173                  0.00    145.67     64.85      0.00
  177                 72.71    145.36     59.52      0.00
  179                  0.00    145.36     59.52      0.00
  181                  0.00    145.36     59.52      0.00
  183                  0.00    145.37     58.22      0.00
  184                  0.00    144.10     55.51      0.00
  185                 32.06    144.75     55.79      0.00
  187                  0.00    145.56     57.66      0.00
  189                134.90    145.86     61.47      0.00
  191                102.38    145.93     52.40      0.00
  193                 89.14    146.02     55.47      0.00
  195                  0.00    146.09     56.58      0.00
  197                 21.30    145.96     53.28      0.00
  199                149.15    140.09     61.57      0.00
  201                 55.76    139.29     60.31      0.00
  203               4709.82    139.11     59.41      0.00
  204                  0.00    145.27     53.85      0.00
  205                 81.70    140.06     51.59      0.00
  206                  0.00    139.15     59.86      0.00
  207                 86.74    139.32     56.47      0.00
  208                  0.00    138.97     53.28      0.00
  209                  1.09    138.64     60.94      0.00
  211                 10.84    138.54     56.99      0.00
  213                 17.42    138.48     56.97      0.00
  215                115.24    138.31     56.90      0.00
[...]
  219                 71.48    137.00     57.63      0.00
  225                 39.44    137.01     55.90      0.00
  229                111.03    137.26     54.92      4.70
  231                 28.51    137.25     57.30      0.00
  237                 27.01    137.45     53.49      0.00
  239                 77.18    137.47     53.93      0.00
  241                  0.00    137.47     53.93      0.00
  243                  7.51    137.47     53.50      0.00
  247                121.76    137.49     51.77      0.00
  249                  0.00    137.49     51.77      0.00
  251                 41.80    137.52     46.59      0.00
  253                 94.32    137.88     44.14      0.00
  255                 69.87    137.96     48.08      0.00
  257                  0.00    150.81     57.98      0.00
  259                  0.00    150.33     54.30      0.00
  261                  0.00    148.60     64.39      0.00
  263                  0.00    148.41     64.31      0.00
  265                  0.00    147.56     63.94      0.00
  267                  0.00    145.75     54.06      1.90
  269                  0.00    146.30     63.39      0.00
  271                  0.00    145.91     60.62      1.88
  273                  0.00    139.46     56.96      5.67
  275                  0.00    138.62     55.73      5.48
  River           -13205.35    220.00      0.00      0.00  Reservoir
  Lake                 0.00    167.00      0.00      0.00  Reservoir
  1                 -726.92    147.57      6.79      0.00  Tank
  2                 -501.32    139.55      9.99      0.00  Tank
  3                 1168.94    159.26     13.11     36.47  Tank
   
   
  Link Results at 23:55:00 hrs:
  ----------------------------------------------
                       Flow  Velocity  Headloss
  Link                  gpm       fps   /1000ft
  ----------------------------------------------
  20               -1168.94      0.05      0.00
  40                 726.92      0.03      0.00
  50                 501.32      0.02      0.00
  60               13205.35      9.37      8.99
  101                  0.00      0.00      0.00
  103                127.36      0.20      0.01
  105               -455.97      1.29      0.59
  107                -12.78      0.04      0.00
  109               -103.08      0.16      0.01
  111               -503.40      1.43      0.71
  112                437.26      1.24      0.55
  113               -205.94      0.58      0.14
  114                 88.21      0.56      0.20
  115               -107.31      0.68      0.29
  116               -152.35      0.43      0.08
  117                677.38      1.92      1.23
  119               -722.91      2.05      1.39
  120               1228.66      3.49      3.71
  121               1091.01      3.09      2.98
  122                375.27      2.40      2.97
  123               9713.36      4.41      1.69
  125              11961.02      5.43      2.49
  129               1800.37      1.28      0.26
  131               1514.54      1.07      0.19
  133              -1168.94      1.19      0.28
  135                315.05      0.22      0.01
  137                 73.96      0.12      0.01
  145                241.09      1.54      1.31
  147                230.90      1.47      1.21
  149               -359.74      2.30      2.75
  151               -349.01      2.23      2.60
  153                145.87      0.41      0.07
  155                193.67      0.55      0.12
  159               -208.46      0.59      0.14
  161               -255.29      1.63      1.46
  163               -130.53      0.37      0.06
  169                206.94      1.32      0.99
  171                374.72      1.06      0.41
  173               7805.27      3.54      1.13
  175               7715.67      3.50      1.11
  177               7644.19      3.47      1.09
  179               7345.04      3.33      1.01
  180                  4.50      0.01      0.00
  181                  4.50      0.01      0.00
  183               7100.43      3.22      0.95
  185                -25.19      0.16      0.02
  186                303.67      1.94      2.01
  187               6444.78      2.93      0.79
  189               5262.94      2.39      0.54
  191              -1113.78      0.79      0.11
  193              -1485.80      1.05      0.18
  195               -262.86      0.75      0.21
  197               -363.49      1.03      0.39
  199                363.43      1.03      0.39
  201                726.92      2.06      1.40
  202                596.65      3.81      7.02
  203                337.35      2.15      2.44
  204                596.65      1.69      0.97
  205                303.67      0.86      0.28
  207                -26.07      0.07      0.00
  209                244.20      1.56      1.34
  211                630.46      1.79      1.08
  213                 59.47      0.17      0.01
  215               -116.47      0.33      0.05
  217               -336.39      0.95      0.34
  219               -271.82      0.77      0.23
  221                271.82      1.73      1.64
  223               -135.23      0.38      0.06
  225               -105.75      0.30      0.04
  229               5262.94      3.73      1.61
  231               4914.23      3.49      1.42
  233               4912.28      3.48      1.65
  235                142.29      0.40      0.07
  237                502.91      1.43      0.71
  238                430.59      1.22      0.53
  239                 47.73      0.14      0.01
  240                430.59      1.22      0.53
  241                430.59      1.22      0.53
  243                429.09      0.68      0.13
  245                377.32      0.60      0.10
  247                312.32      0.50      0.07
  249                152.83      0.24      0.02
  251                 71.48      0.15      0.01
  257                 39.44      0.11      0.01
  261                 40.89      0.26      0.05
  263                 28.51      0.08      0.00
  269                 36.77      0.10      0.01
  271                 98.65      0.63      0.25
  273                -88.89      0.25      0.03
  275                -57.57      0.16      0.01
  277                  7.51      0.02      0.00
  281                -65.08      0.27      0.04
  283               -108.49      0.31      0.04
  285                 23.46      0.07      0.00
  287               -210.30      0.86      0.34
  289                501.32      2.05      1.71
  291                 94.32      0.39      0.08
  293                126.83      0.81      0.40
  295                -85.03      0.24      0.03
  297                512.92      3.27      5.30
  299                246.63      1.57      1.37
  301                246.63      1.57      1.37
  303                266.29      1.70      1.58
  305                164.46      0.47      0.09
  307                430.75      1.22      0.53
  309                223.81      1.43      1.14
  311               -340.29      0.97      0.34
  313                521.30      1.48      0.76
  315              -1222.94      0.87      0.13
  317                122.95      0.78      0.38
  319                 19.33      0.05      0.00
  321               7324.24      3.32      1.00
  323                -75.23      0.21      0.02
  325                109.16      0.70      0.30
  329              13205.35      5.99      3.03
  330                  0.00      0.00      0.00
  333                 -0.00      0.00      0.00
  10                   0.00      0.00      0.00  Pump
  335              13205.35      0.00    -93.02  Pump
   
   
  Node Results at 24:00:00 hrs:
  --------------------------------------------------------
                     Demand      Head  Pressure  Chemical
  Node                  gpm        ft       psi      mg/L
  --------------------------------------------------------
  10                   0.00    147.50      0.22      0.00
  15                 589.05    130.26     42.58     36.49
  20                   0.00    159.30     13.13      0.00
  35                1956.07    147.40     58.45      3.60
  40                   0.00    147.48      6.75      0.00
  50                   0.00    139.38      9.91      0.00
  60                   0.00    209.09     90.60      0.00
  601                  0.00    302.96    131.27      0.00
  61                   0.00    302.96    131.27      0.00
  101                237.44    147.50     45.71      6.37
  103                166.50    147.46     45.26      2.66
  105                169.21    148.75     52.10      0.10
  107                 68.30    148.74     54.92      2.12
  109                289.25    147.46     55.10      2.10
  111                177.42    147.94     59.77      2.22
  113                 25.01    147.96     63.24      6.48
  115                 65.13    148.78     58.40      0.00
  117                147.14    151.84     59.90      0.00
  119                220.16    159.09     68.07      0.00
  120                  0.00    156.75     67.92      0.00
  121                 52.04    162.48     71.27      0.00
  123                  0.00    166.91     67.55      0.00
  125                 57.00    161.87     65.37      0.00
  127                 22.08    160.10     45.10      0.00
  129                  0.00    160.09     47.27     36.49
  131                 53.44    160.07     66.76      0.00
  139                  7.36    155.01     53.73     36.49
  141                 12.31    151.41     63.87     36.49
  143                  7.75    141.57     63.29     36.49
  145                 34.54    152.52     65.66     49.93
  147                 10.69    153.37     58.44     15.18
  149                 33.84    153.73     59.68      9.37
  151                180.60    157.23     53.61      9.43
  153                 55.21    157.32     39.48      0.00
  157                 64.74    156.67     62.21      0.00
  159                 51.65    153.34     63.84      0.00
  161                 19.75    151.07     63.73      0.00
  163                 11.77    150.62     63.10      0.00
  164                  0.00    150.62     63.10     15.83
  166                  3.25    150.62     66.13      0.00
  167                 18.20    148.75     66.62      0.00
  169                  0.00    148.75     66.62      0.00
  171                 49.17    147.66     65.71      0.00
  173                  0.00    147.63     65.70      0.00
  177                 72.71    147.41     60.41      0.00
  179                  0.00    147.42     60.41      0.00
  181                  0.00    147.41     60.41      1.56
  183                  0.00    147.42     59.11      0.00
  184                  0.00    146.01     56.33      3.10
  185                 32.06    146.69     56.63      3.37
  187                  0.00    147.50     58.49      1.29
  189                134.90    147.81     62.31      0.27
  191                102.38    147.84     53.23      3.69
  193                 89.14    147.93     56.30      2.45
  195                  0.00    148.00     57.41      0.00
  197                 21.30    147.86     54.10      5.61
  199                149.15    141.77     62.30      2.03
  201                 55.76    140.93     61.02      5.05
  203               4709.82    140.75     60.12      7.35
  204                  0.00    147.21     54.69      1.47
  205                 81.70    141.74     52.32      2.78
  206                  0.00    140.58     60.48      4.10
  207                 86.74    140.90     57.15      4.24
  208                  0.00    140.23     53.83      3.88
  209                  1.09    139.61     61.36      3.43
  211                 10.84    139.40     57.37      7.25
  213                 17.42    139.33     57.34     10.55
  215                115.24    139.16     57.27     17.60
  217                 30.27    139.15     57.69      0.00
  219                 51.65    139.14     58.55      0.00
  225                 28.50    139.14     56.82      0.00
  229                 80.22    139.13     55.73      4.57
  231                 20.60    139.12     58.11      0.00
  237                 19.51    139.17     54.23      0.00
  239                 55.76    139.14     54.66      0.00
  241                  0.00    139.14     54.66      0.00
  243                  5.43    139.14     54.22      0.00
  247                 87.97    139.14     52.49      0.00
  249                  0.00    139.14     52.49      0.00
  251                 30.20    139.14     47.29      0.00
  253                 68.15    139.11     44.68      0.00
  255                 50.49    139.15     48.60      0.00
  257                  0.00    153.74     59.25      0.00
  259                  0.00    153.32     55.60      0.00
  261                  0.00    151.79     65.77      0.00
  263                  0.00    151.63     65.70      0.00
  265                  0.00    149.35     64.71      0.00
  267                  0.00    147.93     55.00      1.93
  269                  0.00    148.16     64.20      0.00
  271                  0.00    147.48     61.30      0.73
  273                  0.00    141.74     57.95      5.91
  275                  0.00    140.94     56.73      5.50
  River           -13109.24    220.00      0.00      0.00  Reservoir
  Lake                 0.00    167.00      0.00      0.00  Reservoir
  1                 -126.03    147.48      6.75      0.00  Tank
  2                 -174.48    139.38      9.91      0.00  Tank
  3                 2344.67    159.30     13.13     36.44  Tank
   
   
  Link Results at 24:00:00 hrs:
  ----------------------------------------------
                       Flow  Velocity  Headloss
  Link                  gpm       fps   /1000ft
  ----------------------------------------------
  20               -2344.67      0.10      0.00
  40                 126.03      0.01      0.00
  50                 174.48      0.01      0.00
  60               13109.24      9.30      8.87
  101                  0.00      0.00      0.00
  103                175.40      0.28      0.02
  105               -412.83      1.17      0.49
  107                 42.25      0.12      0.01
  109                  8.90      0.01      0.00
  111               -280.35      0.80      0.24
  112                506.64      1.44      0.72
  113                -41.98      0.12      0.01
  114                128.95      0.82      0.41
  115                -26.05      0.17      0.02
  116                 61.95      0.18      0.01
  117                624.29      1.77      1.06
  119               -726.77      2.06      1.40
  120               1135.25      3.22      3.21
  121               1019.36      2.89      2.63
  122                362.95      2.32      2.80
  123               9718.87      4.41      1.70
  125              13109.24      5.95      2.95
  129               2975.38      2.11      0.65
  131               2710.17      1.92      0.55
  133              -2344.67      2.39      1.02
  135                343.43      0.24      0.01
  137                 53.44      0.09      0.00
  145                290.00      1.85      1.84
  147                282.63      1.80      1.76
  149               -596.80      3.81      7.02
  151               -589.05      3.76      6.85
  153                326.48      0.93      0.32
  155                361.02      1.02      0.38
  159               -371.70      1.05      0.41
  161               -405.54      2.59      3.43
  163               -152.99      0.43      0.08
  169                208.20      1.33      1.00
  171                433.15      1.23      0.54
  173               7930.31      3.60      1.16
  175               7865.57      3.57      1.15
  177               7813.92      3.55      1.13
  179               7550.54      3.43      1.06
  180                  3.25      0.01      0.00
  181                  3.25      0.01      0.00
  183               7339.52      3.33      1.01
  185                -18.20      0.12      0.01
  186                366.20      2.34      2.84
  187               6742.64      3.06      0.86
  189               4995.48      2.27      0.49
  191              -1697.99      1.20      0.23
  193              -1956.07      1.39      0.30
  195               -111.24      0.32      0.04
  197               -183.95      0.52      0.11
  199                -57.93      0.16      0.01
  201                126.03      0.36      0.05
  202                586.56      3.74      6.80
  203                252.42      1.61      1.43
  204                586.56      1.66      0.94
  205                366.20      1.04      0.39
  207                310.35      0.88      0.29
  209                161.80      1.03      0.63
  211                578.68      1.64      0.92
  213                204.40      0.58      0.13
  215                175.22      0.50      0.10
  217               -237.23      0.67      0.18
  219               -243.63      0.69      0.19
  221                243.63      1.56      1.34
  223                 69.55      0.20      0.02
  225                 90.85      0.26      0.03
  229               4995.48      3.54      1.47
  231               4732.19      3.36      1.33
  233               4709.82      3.34      1.53
  235                114.13      0.32      0.05
  237                499.15      1.42      0.70
  238                498.87      1.42      0.70
  239                 86.45      0.25      0.03
  240                498.87      1.42      0.70
  241                498.87      1.42      0.70
  243                497.78      0.79      0.17
  245                301.34      0.48      0.07
  247                225.66      0.36      0.04
  249                110.43      0.18      0.01
  251                 51.65      0.11      0.00
  257                 28.50      0.08      0.00
  261                 58.26      0.37      0.09
  263                 20.60      0.06      0.00
  269                185.60      0.53      0.11
  271                 42.57      0.27      0.05
  273                123.52      0.35      0.05
  275                 28.73      0.08      0.00
  277                  5.43      0.02      0.00
  281                 23.31      0.10      0.01
  283                 39.02      0.11      0.01
  285                -30.63      0.09      0.00
  287                -34.03      0.14      0.01
  289                174.48      0.71      0.24
  291                 68.15      0.28      0.04
  293                 21.81      0.14      0.02
  295                  8.39      0.02      0.00
  297                478.84      3.06      4.67
  299                230.06      1.47      1.20
  301                230.06      1.47      1.20
  303                248.78      1.59      1.39
  305                145.45      0.41      0.07
  307                394.24      1.12      0.45
  309                196.00      1.25      0.89
  311                -20.78      0.06      0.00
  313                431.83      1.23      0.54
  315              -1844.83      1.31      0.27
  317                119.84      0.76      0.36
  319                 -5.71      0.02      0.00
  321               7535.51      3.42      1.06
  323                -33.39      0.09      0.00
  325                146.85      0.94      0.52
  329              13109.24      5.95      2.99
  330                  0.00      0.00      0.00
  333                 -0.00      0.00      0.00
  10                   0.00      0.00      0.00  Pump
  335              13109.24      0.00    -93.87  Pump
   
  Analysis ended Wed May 06 17:39:36 2020
