  Page 1                                    Wed May 06 17:43:59 2020

  ******************************************************************
  *                           E P A N E T                          *
  *                   Hydraulic and Water Quality                  *
  *                   Analysis for Pipe Networks                   *
  *                         Version 2.00.12                        *
  ******************************************************************
  
  Analysis begun Wed May 06 17:43:59 2020

   
  Hydraulic Status:
  -----------------------------------------------------------------------
     0:00:00: Balanced after 5 trials
     0:00:00: Reservoir River is emptying
     0:00:00: Reservoir Lake is closed
     0:00:00: Tank 1 is filling at 13.10 ft
     0:00:00: Tank 2 is emptying at 23.50 ft
     0:00:00: Tank 3 is filling at 29.00 ft
   
     0:05:00: Balanced after 2 trials
   
     0:10:00: Balanced after 2 trials
   
     0:15:00: Balanced after 2 trials
   
     0:20:00: Balanced after 2 trials
   
     0:25:00: Balanced after 2 trials
   
     0:30:00: Balanced after 2 trials
   
     0:35:00: Balanced after 2 trials
   
     0:40:00: Balanced after 2 trials
   
     0:45:00: Balanced after 2 trials
   
     0:50:00: Balanced after 2 trials
   
     0:55:00: Balanced after 2 trials
   
     1:00:00: Pump 10 changed by timer control
     1:00:00: Balanced after 7 trials
     1:00:00: Reservoir Lake is emptying
     1:00:00: Pump 10 changed from closed to open
   
     1:05:00: Balanced after 2 trials
   
     1:10:00: Balanced after 2 trials
   
     1:15:00: Balanced after 2 trials
   
     1:20:00: Balanced after 2 trials
   
     1:25:00: Balanced after 2 trials
   
     1:30:00: Balanced after 2 trials
   
     1:35:00: Balanced after 2 trials
   
     1:40:00: Balanced after 2 trials
   
     1:45:00: Balanced after 2 trials
   
     1:50:00: Balanced after 2 trials
   
     1:55:00: Balanced after 2 trials
   
     2:00:00: Balanced after 4 trials
     2:00:00: Tank 2 is filling at 20.42 ft
   
     2:05:00: Balanced after 1 trials
   
     2:10:00: Balanced after 1 trials
   
     2:15:00: Balanced after 1 trials
   
     2:20:00: Balanced after 1 trials
   
     2:25:00: Balanced after 1 trials
   
     2:30:00: Balanced after 1 trials
   
     2:35:00: Balanced after 1 trials
   
     2:40:00: Balanced after 1 trials
   
     2:45:00: Balanced after 1 trials
   
     2:50:00: Balanced after 1 trials
   
     2:55:00: Balanced after 1 trials
   
     3:00:00: Balanced after 3 trials
   
     3:05:00: Balanced after 1 trials
   
     3:10:00: Balanced after 1 trials
   
     3:15:00: Balanced after 1 trials
   
     3:20:00: Balanced after 1 trials
   
     3:25:00: Balanced after 1 trials
   
     3:30:00: Balanced after 1 trials
   
     3:35:00: Balanced after 1 trials
   
     3:40:00: Balanced after 1 trials
   
     3:45:00: Balanced after 1 trials
   
     3:50:00: Balanced after 1 trials
   
     3:55:00: Balanced after 1 trials
   
     4:00:00: Balanced after 3 trials
   
     4:05:00: Balanced after 1 trials
   
     4:10:00: Balanced after 1 trials
   
     4:15:00: Balanced after 1 trials
   
     4:20:00: Balanced after 1 trials
   
     4:25:00: Balanced after 1 trials
   
     4:30:00: Balanced after 1 trials
   
     4:35:00: Balanced after 1 trials
   
     4:36:55: Pump 335 changed by Tank 1 control
     4:36:55: Pipe 330 changed by Tank 1 control
     4:36:55: Balanced after 4 trials
     4:36:55: Pipe 330 changed from closed to open
     4:36:55: Pump 335 changed from open to closed
   
     4:40:00: Balanced after 1 trials
   
     4:45:00: Balanced after 2 trials
   
     4:50:00: Balanced after 2 trials
   
     4:55:00: Balanced after 2 trials
   
     5:00:00: Balanced after 3 trials
     5:00:00: Tank 3 is emptying at 34.44 ft
   
     5:05:00: Balanced after 2 trials
   
     5:10:00: Balanced after 2 trials
   
     5:15:00: Balanced after 2 trials
   
     5:20:00: Balanced after 2 trials
   
     5:25:00: Balanced after 2 trials
   
     5:30:00: Balanced after 2 trials
   
     5:35:00: Balanced after 2 trials
   
     5:40:00: Balanced after 2 trials
   
     5:45:00: Balanced after 2 trials
   
     5:50:00: Balanced after 2 trials
   
     5:55:00: Balanced after 2 trials
   
     6:00:00: Balanced after 3 trials
     6:00:00: Tank 3 is filling at 34.33 ft
   
     6:05:00: Balanced after 2 trials
   
     6:10:00: Balanced after 2 trials
   
     6:15:00: Balanced after 2 trials
   
     6:20:00: Balanced after 2 trials
   
     6:25:00: Balanced after 2 trials
   
     6:30:00: Balanced after 2 trials
   
     6:35:00: Balanced after 2 trials
   
     6:40:00: Balanced after 2 trials
   
     6:45:00: Balanced after 2 trials
   
     6:50:00: Balanced after 2 trials
   
     6:55:00: Balanced after 2 trials
   
     7:00:00: Balanced after 3 trials
   
     7:05:00: Balanced after 1 trials
   
     7:10:00: Balanced after 1 trials
   
     7:15:00: Balanced after 1 trials
   
     7:20:00: Balanced after 1 trials
   
     7:25:00: Balanced after 1 trials
   
     7:30:00: Balanced after 1 trials
   
     7:35:00: Balanced after 1 trials
   
     7:40:00: Balanced after 1 trials
   
     7:45:00: Balanced after 1 trials
   
     7:50:00: Balanced after 1 trials
   
     7:55:00: Balanced after 1 trials
   
     8:00:00: Balanced after 3 trials
   
     8:05:00: Balanced after 1 trials
   
     8:10:00: Balanced after 1 trials
   
     8:15:00: Balanced after 1 trials
   
     8:20:00: Balanced after 1 trials
   
     8:25:00: Balanced after 1 trials
   
     8:30:00: Balanced after 1 trials
   
     8:35:00: Balanced after 1 trials
   
     8:40:00: Balanced after 1 trials
   
     8:45:00: Balanced after 1 trials
   
     8:50:00: Balanced after 1 trials
   
     8:55:00: Balanced after 1 trials
   
     8:59:54: Balanced after 4 trials
     8:59:54: Tank 3 is closed at 35.50 ft
     8:59:54: Pipe 20 changed from open to temporarily closed
   
     9:00:00: Balanced after 6 trials
     9:00:00: Tank 2 is emptying at 27.48 ft
     9:00:00: Tank 3 is emptying at 35.50 ft
     9:00:00: Pipe 20 changed from temporarily closed to open
   
     9:05:00: Balanced after 2 trials
   
     9:10:00: Balanced after 2 trials
   
     9:15:00: Balanced after 2 trials
   
     9:20:00: Balanced after 2 trials
   
     9:25:00: Balanced after 2 trials
   
     9:30:00: Balanced after 2 trials
   
     9:35:00: Balanced after 2 trials
   
     9:40:00: Balanced after 2 trials
     9:40:00: Tank 1 is emptying at 22.51 ft
   
     9:45:00: Balanced after 2 trials
   
     9:50:00: Balanced after 1 trials
   
     9:55:00: Balanced after 1 trials
   
    10:00:00: Balanced after 3 trials
    10:00:00: Tank 2 is filling at 27.40 ft
   
    10:05:00: Balanced after 1 trials
   
    10:10:00: Balanced after 1 trials
   
    10:15:00: Balanced after 1 trials
   
    10:20:00: Balanced after 1 trials
   
    10:25:00: Balanced after 1 trials
   
    10:30:00: Balanced after 1 trials
   
    10:35:00: Balanced after 1 trials
   
    10:40:00: Balanced after 1 trials
   
    10:45:00: Balanced after 1 trials
   
    10:50:00: Balanced after 1 trials
   
    10:55:00: Balanced after 1 trials
   
    11:00:00: Balanced after 3 trials
    11:00:00: Tank 2 is emptying at 27.48 ft
   
    11:05:00: Balanced after 1 trials
   
    11:10:00: Balanced after 1 trials
   
    11:15:00: Balanced after 1 trials
   
    11:20:00: Balanced after 1 trials
   
    11:25:00: Balanced after 1 trials
   
    11:30:00: Balanced after 1 trials
   
    11:35:00: Balanced after 1 trials
   
    11:40:00: Balanced after 1 trials
   
    11:45:00: Balanced after 1 trials
   
    11:50:00: Balanced after 1 trials
   
    11:55:00: Balanced after 1 trials
   
    12:00:00: Balanced after 4 trials
    12:00:00: Tank 1 is filling at 21.66 ft
    12:00:00: Tank 2 is filling at 26.95 ft
   
    12:05:00: Balanced after 2 trials
   
    12:10:00: Balanced after 2 trials
   
    12:15:00: Balanced after 2 trials
   
    12:20:00: Balanced after 2 trials
   
    12:25:00: Balanced after 2 trials
   
    12:30:00: Balanced after 2 trials
   
    12:35:00: Balanced after 2 trials
   
    12:40:00: Balanced after 2 trials
   
    12:45:00: Balanced after 2 trials
   
    12:50:00: Balanced after 2 trials
   
    12:55:00: Balanced after 2 trials
   
    13:00:00: Balanced after 3 trials
    13:00:00: Tank 1 is emptying at 22.02 ft
    13:00:00: Tank 2 is emptying at 27.62 ft
   
    13:05:00: Balanced after 1 trials
   
    13:10:00: Balanced after 1 trials
   
    13:15:00: Balanced after 1 trials
   
    13:20:00: Balanced after 1 trials
   
    13:25:00: Balanced after 1 trials
   
    13:30:00: Balanced after 1 trials
   
    13:35:00: Balanced after 1 trials
   
    13:40:00: Balanced after 1 trials
   
    13:45:00: Balanced after 1 trials
   
    13:50:00: Balanced after 1 trials
   
    13:55:00: Balanced after 1 trials
   
    14:00:00: Balanced after 3 trials
    14:00:00: Tank 2 is filling at 27.51 ft
   
    14:05:00: Balanced after 1 trials
   
    14:10:00: Balanced after 1 trials
   
    14:15:00: Balanced after 1 trials
   
    14:20:00: Balanced after 1 trials
    14:20:00: Tank 2 is emptying at 27.51 ft
   
    14:25:00: Balanced after 1 trials
   
    14:30:00: Balanced after 1 trials
   
    14:35:00: Balanced after 1 trials
   
    14:40:00: Balanced after 1 trials
   
    14:45:00: Balanced after 1 trials
   
    14:50:00: Balanced after 1 trials
   
    14:55:00: Balanced after 1 trials
   
    15:00:00: Pump 10 changed by timer control
    15:00:00: Balanced after 5 trials
    15:00:00: Reservoir Lake is closed
    15:00:00: Tank 2 is filling at 27.49 ft
    15:00:00: Pump 10 changed from open to closed
   
    15:05:00: Balanced after 2 trials
   
    15:10:00: Balanced after 2 trials
   
    15:15:00: Balanced after 2 trials
   
    15:20:00: Balanced after 2 trials
   
    15:25:00: Balanced after 2 trials
   
    15:30:00: Balanced after 2 trials
   
    15:35:00: Balanced after 2 trials
   
    15:40:00: Balanced after 2 trials
   
    15:45:00: Balanced after 2 trials
   
    15:50:00: Balanced after 2 trials
    15:50:00: Tank 2 is emptying at 27.58 ft
   
    15:55:00: Balanced after 2 trials
   
    16:00:00: Balanced after 3 trials
    16:00:00: Tank 2 is filling at 27.57 ft
   
    16:05:00: Balanced after 2 trials
   
    16:10:00: Balanced after 2 trials
   
    16:15:00: Balanced after 2 trials
   
    16:20:00: Balanced after 2 trials
   
    16:25:00: Balanced after 2 trials
   
    16:30:00: Balanced after 2 trials
   
    16:35:00: Balanced after 1 trials
   
    16:40:00: Balanced after 1 trials
   
    16:45:00: Balanced after 1 trials
   
    16:50:00: Balanced after 1 trials
    16:50:00: Tank 2 is emptying at 27.65 ft
   
    16:55:00: Balanced after 1 trials
   
    17:00:00: Balanced after 3 trials
    17:00:00: Tank 2 is filling at 27.65 ft
   
    17:05:00: Balanced after 2 trials
   
    17:10:00: Balanced after 2 trials
   
    17:15:00: Balanced after 2 trials
   
    17:20:00: Balanced after 2 trials
   
    17:25:00: Balanced after 2 trials
   
    17:30:00: Balanced after 2 trials
   
    17:35:00: Balanced after 2 trials
   
    17:40:00: Balanced after 2 trials
   
    17:45:00: Balanced after 2 trials
   
    17:50:00: Balanced after 2 trials
   
    17:55:00: Balanced after 2 trials
   
    18:00:00: Balanced after 3 trials
    18:00:00: Tank 2 is emptying at 28.04 ft
   
    18:05:00: Balanced after 1 trials
   
    18:10:00: Balanced after 1 trials
   
    18:15:00: Balanced after 1 trials
   
    18:20:00: Balanced after 1 trials
   
    18:25:00: Balanced after 1 trials
   
    18:30:00: Balanced after 1 trials
   
    18:35:00: Balanced after 1 trials
   
    18:40:00: Balanced after 1 trials
   
    18:45:00: Balanced after 1 trials
   
    18:50:00: Balanced after 1 trials
   
    18:55:00: Balanced after 1 trials
   
    19:00:00: Balanced after 3 trials
   
    19:05:00: Balanced after 1 trials
   
    19:10:00: Balanced after 1 trials
   
    19:15:00: Balanced after 1 trials
   
    19:20:00: Balanced after 1 trials
   
    19:25:00: Balanced after 1 trials
   
    19:30:00: Balanced after 1 trials
   
    19:35:00: Balanced after 1 trials
   
    19:40:00: Balanced after 1 trials
   
    19:45:00: Balanced after 1 trials
   
    19:50:00: Balanced after 1 trials
   
    19:55:00: Balanced after 1 trials
   
    20:00:00: Balanced after 3 trials
   
    20:05:00: Balanced after 1 trials
   
    20:10:00: Balanced after 1 trials
   
    20:15:00: Balanced after 1 trials
   
    20:20:00: Balanced after 1 trials
   
    20:25:00: Balanced after 1 trials
   
    20:30:00: Balanced after 1 trials
   
    20:35:00: Balanced after 1 trials
   
    20:40:00: Balanced after 1 trials
   
    20:45:00: Balanced after 1 trials
   
    20:50:00: Balanced after 1 trials
   
    20:55:00: Balanced after 1 trials
   
    21:00:00: Balanced after 3 trials
   
    21:05:00: Balanced after 1 trials
   
    21:10:00: Balanced after 1 trials
   
    21:15:00: Balanced after 1 trials
   
    21:20:00: Balanced after 1 trials
   
    21:25:00: Balanced after 1 trials
   
    21:30:00: Balanced after 1 trials
   
    21:35:00: Balanced after 1 trials
   
    21:37:54: Pump 335 changed by Tank 1 control
    21:37:54: Pipe 330 changed by Tank 1 control
    21:37:54: Balanced after 5 trials
    21:37:54: Tank 1 is filling at 17.10 ft
    21:37:54: Tank 3 is filling at 29.74 ft
    21:37:54: Pipe 330 changed from open to closed
    21:37:54: Pump 335 changed from closed to open
   
    21:40:00: Balanced after 1 trials
   
    21:45:00: Balanced after 2 trials
   
    21:50:00: Balanced after 2 trials
   
    21:55:00: Balanced after 2 trials
   
    22:00:00: Balanced after 4 trials
    22:00:00: Tank 1 is emptying at 17.33 ft
   
    22:05:00: Balanced after 2 trials
   
    22:10:00: Balanced after 2 trials
   
    22:15:00: Balanced after 2 trials
   
    22:20:00: Balanced after 2 trials
   
    22:25:00: Balanced after 2 trials
   
    22:30:00: Balanced after 2 trials
   
    22:35:00: Balanced after 2 trials
   
    22:40:00: Balanced after 2 trials
   
    22:45:00: Balanced after 2 trials
   
    22:50:00: Balanced after 2 trials
   
    22:55:00: Balanced after 2 trials
   
    23:00:00: Balanced after 4 trials
   
    23:05:00: Balanced after 2 trials
   
    23:10:00: Balanced after 2 trials
   
    23:15:00: Balanced after 2 trials
   
    23:20:00: Balanced after 2 trials
   
    23:25:00: Balanced after 2 trials
   
    23:30:00: Balanced after 2 trials
   
    23:35:00: Balanced after 2 trials
   
    23:40:00: Balanced after 2 trials
   
    23:45:00: Balanced after 2 trials
   
    23:50:00: Balanced after 2 trials
   
    23:55:00: Balanced after 2 trials
   
    24:00:00: Balanced after 4 trials
    24:00:00: Tank 1 is filling at 16.09 ft
   
   
  Node Results at 0:00:00 hrs:
  --------------------------------------------------------
                     Demand      Head  Pressure  Chemical
  Node                  gpm        ft       psi      mg/L
  --------------------------------------------------------
  10                   0.00    145.84     -0.50      0.00
  15                 598.42    127.81     41.52      0.00
  20                   0.00    158.00     12.57      0.00
  35                1553.90    146.38     58.01      0.00
  40                   0.00    145.00      5.68      0.00
  50                   0.00    140.00     10.18      0.00
  60                   0.00    209.02     90.57      0.00
  601                  0.00    302.53    131.09      0.00
  61                   0.00    302.53    131.09      0.00
  101                265.93    145.84     44.99      0.00
  103                186.48    145.81     44.55      0.00
  105                189.52    147.15     51.41      0.00
  107                 76.50    147.14     54.23      0.00
  109                323.96    145.81     54.38      0.00
  111                198.72    146.55     59.17      0.00
  113                 28.01    146.62     62.66      0.00
  115                 72.94    147.30     57.76      0.00
  117                164.79    150.35     59.25      0.00
  119                246.58    157.85     67.53      0.00
  120                  0.00    155.42     67.34      0.00
  121                 58.28    161.24     70.73      0.00
  123                  0.00    165.69     67.03      0.00
  125                 63.84    160.62     64.83      0.00
  127                 24.72    158.81     44.55      0.00
  129                  0.00    158.79     46.71      0.00
  131                 59.85    158.77     66.20      0.00
  139                  8.25    153.41     53.04      0.00
  141                 13.79    149.61     63.09      0.00
  143                  8.68    139.46     62.38      0.00
  145                 38.68    150.75     64.88      0.00
  147                 11.97    151.62     57.68      0.00
  149                 37.90    152.00     58.93      0.00
  151                202.27    155.71     52.95      0.00
  153                 61.84    155.80     38.82      0.00
  157                 72.51    155.49     61.70      0.00
  159                 57.85    152.23     63.36      0.00
  161                 22.12    150.02     63.27      0.00
  163                 13.19    149.58     62.65      0.00
  164                  0.00    149.58     62.65      0.00
  166                  3.64    149.58     65.68      0.00
  167                 20.38    147.77     66.20      0.00
  169                  0.00    147.77     66.20      0.00
  171                 55.08    146.74     65.31      0.00
  173                  0.00    146.72     65.31      0.00
  177                 81.44    146.35     59.95      0.00
  179                  0.00    146.32     59.93      0.00
  181                  0.00    146.38     59.96      0.00
  183                  0.00    146.32     58.63      0.00
  184                  0.00    145.22     55.99      0.00
  185                 35.91    145.73     56.21      0.00
  187                  0.00    146.33     57.99      0.00
  189                151.09    146.64     61.81      0.00
  191                114.66    146.52     52.66      0.00
  193                 99.83    146.62     55.73      0.00
  195                  0.00    146.70     56.85      0.00
  197                 23.86    146.53     53.52      0.00
  199                167.05    142.07     62.42      0.00
  201                 62.45    141.43     61.24      0.00
  203               3980.98    141.29     60.36      0.00
  204                  0.00    146.12     54.21      0.00
  205                 91.50    142.01     52.43      0.00
  206                  0.00    140.98     60.65      0.00
  207                 97.15    141.31     57.33      0.00
  208                  0.00    140.61     53.99      0.00
  209                  1.22    139.96     61.51      0.00
  211                 12.14    139.74     57.52      0.00
  213                 19.52    139.66     57.48      0.00
  215                129.07    139.45     57.39      0.00
  217                 33.91    139.43     57.82      0.00
  219                 57.85    139.42     58.68      0.00
  225                 31.92    139.43     56.95      0.00
  229                 89.85    139.47     55.88      0.00
  231                 23.07    139.47     58.26      0.00
  237                 21.85    139.54     54.40      0.00
  239                 62.45    139.53     54.82      0.00
  241                  0.00    139.53     54.82      0.00
  243                  6.08    139.53     54.39      0.00
  247                 98.53    139.53     52.66      0.00
  249                  0.00    139.53     52.66      0.00
  251                 33.82    139.53     47.46      0.00
  253                 76.33    139.53     44.86      0.00
  255                 56.55    139.59     48.78      0.00
  257                  0.00    152.31     58.63      0.00
  259                  0.00    151.87     54.97      0.00
  261                  0.00    150.30     65.12      0.00
  263                  0.00    150.13     65.05      0.00
  265                  0.00    148.35     64.28      0.00
  267                  0.00    146.68     54.46      0.00
  269                  0.00    147.08     63.73      0.00
  271                  0.00    146.48     60.87      0.00
  273                  0.00    142.02     58.07      0.00
  275                  0.00    141.42     56.95      0.00
  River           -13150.33    220.00      0.00      0.00  Reservoir
  Lake                 0.00    167.00      0.00      0.00  Reservoir
  1                  639.49    145.00      5.68      0.00  Tank
  2                 -242.73    140.00     10.18      0.00  Tank
  3                 2352.91    158.00     12.57      0.00  Tank
   
   
  Link Results at 0:00:00 hrs:
  ----------------------------------------------
                       Flow  Velocity  Headloss
  Link                  gpm       fps   /1000ft
  ----------------------------------------------
  20               -2352.91      0.10      0.00
  40                -639.49      0.03      0.00
  50                 242.73      0.01      0.00
  60               13150.33      9.33      8.92
  101                  0.00      0.00      0.00
  103                157.84      0.25      0.02
  105               -423.77      1.20      0.52
  107                 22.58      0.06      0.00
  109                -28.64      0.05      0.00
  111               -352.60      1.00      0.37
  112                480.89      1.36      0.65
  113               -112.22      0.32      0.04
  114                116.69      0.74      0.34
  115                -53.92      0.34      0.08
  116                -23.55      0.07      0.00
  117                635.87      1.80      1.10
  119               -724.44      2.06      1.40
  120               1159.19      3.29      3.33
  121               1037.65      2.94      2.71
  122                365.91      2.34      2.84
  123               9710.81      4.41      1.69
  125              13150.33      5.97      2.97
  129               3015.32      2.14      0.67
  131               2736.81      1.94      0.56
  133              -2352.91      2.40      1.03
  135                359.18      0.25      0.01
  137                 59.85      0.10      0.00
  145                299.33      1.91      1.96
  147                291.08      1.86      1.86
  149               -607.10      3.87      7.25
  151               -598.42      3.82      7.06
  153                329.81      0.94      0.32
  155                368.49      1.05      0.40
  159               -380.46      1.08      0.42
  161               -418.36      2.67      3.64
  163               -152.82      0.43      0.08
  169                214.66      1.37      1.06
  171                467.81      1.33      0.62
  173               7837.24      3.56      1.14
  175               7764.73      3.52      1.12
  177               7706.89      3.50      1.10
  179               7430.47      3.37      1.03
  180                  3.64      0.01      0.00
  181                  3.64      0.01      0.00
  183               7199.12      3.27      0.97
  185                -20.38      0.13      0.01
  186                312.29      1.99      2.12
  187               6548.99      2.97      0.82
  189               4408.36      2.00      0.39
  191              -2085.55      1.48      0.34
  193              -1553.90      1.10      0.20
  195                669.20      1.90      1.20
  197                587.76      1.67      0.95
  199                -51.73      0.15      0.01
  201               -639.49      1.81      1.11
  202                502.19      3.21      5.10
  203                225.81      1.44      1.16
  204                502.19      1.42      0.71
  205                312.29      0.89      0.29
  207                277.54      0.79      0.24
  209                160.99      1.03      0.62
  211                629.75      1.79      1.08
  213                151.30      0.43      0.08
  215                 97.42      0.28      0.03
  217               -248.02      0.70      0.19
  219               -254.30      0.72      0.20
  221                254.30      1.62      1.45
  223                 17.94      0.05      0.00
  225                 41.80      0.12      0.01
  229               4408.36      3.13      1.16
  231               4096.97      2.91      1.02
  233               3980.98      2.82      1.12
  235                144.34      0.41      0.07
  237                453.23      1.29      0.59
  238                511.42      1.45      0.73
  239                155.34      0.44      0.08
  240                511.42      1.45      0.73
  241                511.42      1.45      0.73
  243                510.20      0.81      0.18
  245                328.04      0.52      0.08
  247                252.74      0.40      0.05
  249                123.68      0.20      0.01
  251                 57.85      0.12      0.01
  257                 31.92      0.09      0.00
  261                 55.78      0.36      0.09
  263                 23.07      0.07      0.00
  269                170.03      0.48      0.10
  271                 57.15      0.36      0.09
  273                 91.03      0.26      0.03
  275                 15.03      0.04      0.00
  277                  6.08      0.02      0.00
  281                  8.95      0.04      0.00
  283                 13.55      0.04      0.00
  285                -22.11      0.06      0.00
  287                -67.46      0.28      0.04
  289                242.73      0.99      0.45
  291                 76.33      0.31      0.05
  293                 42.39      0.27      0.05
  295                 -8.57      0.02      0.00
  297                487.45      3.11      4.83
  299                234.20      1.49      1.24
  301                234.20      1.49      1.24
  303                253.25      1.62      1.44
  305                148.42      0.42      0.07
  307                401.66      1.14      0.47
  309                214.52      1.37      1.06
  311               -117.10      0.33      0.05
  313                492.20      1.40      0.68
  315              -2223.10      1.58      0.38
  317                101.80      0.65      0.27
  319                 42.55      0.12      0.01
  321               7413.64      3.36      1.03
  323                 53.54      0.15      0.01
  325                137.55      0.88      0.46
  329              13150.33      5.97      3.01
  330                  0.00      0.00      0.00
  333                 -0.00      0.00      0.00
  10                   0.00      0.00      0.00  Pump
  335              13150.33      0.00    -93.51  Pump
   
   
  Node Results at 0:05:00 hrs:
  --------------------------------------------------------
                     Demand      Head  Pressure  Chemical
  Node                  gpm        ft       psi      mg/L
  --------------------------------------------------------
  10                   0.00    145.89     -0.48      0.00
  15                 598.42    127.88     41.54      0.00
  20                   0.00    158.07     12.60      0.00
  35                1553.90    146.43     58.03      0.00
  40                   0.00    145.08      5.71      0.00
  50                   0.00    139.92     10.15      0.00
  60                   0.00    209.03     90.57      0.00
  601                  0.00    302.55    131.10      0.00
  61                   0.00    302.55    131.10      0.00
  101                265.93    145.89     45.02      0.00
  103                186.48    145.86     44.57      0.00
  105                189.52    147.20     51.43      0.00
  107                 76.50    147.20     54.25      0.00
  109                323.96    145.87     54.41      0.00
  111                198.72    146.60     59.19      0.00
  113                 28.01    146.67     62.69      0.00
  115                 72.94    147.36     57.78      0.00
  117                164.79    150.40     59.28      0.00
  119                246.58    157.91     67.56      0.00
  120                  0.00    155.48     67.37      0.00
  121                 58.28    161.30     70.76      0.00
  123                  0.00    165.75     67.05      0.00
  125                 63.84    160.68     64.86      0.00
  127                 24.72    158.88     44.58      0.00
  129                  0.00    158.87     46.74      0.00
  131                 59.85    158.84     66.23      0.00
  139                  8.25    153.48     53.07      0.00
  141                 13.79    149.67     63.12      0.00
  143                  8.68    139.52     62.40      0.00
  145                 38.68    150.81     64.91      0.00
  147                 11.97    151.69     57.71      0.00
  149                 37.90    152.06     58.95      0.00
  151                202.27    155.77     52.98      0.00
  153                 61.84    155.86     38.85      0.00
  157                 72.51    155.54     61.72      0.00
  159                 57.85    152.29     63.39      0.00
  161                 22.12    150.08     63.30      0.00
  163                 13.19    149.63     62.67      0.00
  164                  0.00    149.63     62.67      0.00
  166                  3.64    149.63     65.70      0.00
  167                 20.38    147.83     66.22      0.00
  169                  0.00    147.83     66.22      0.00
  171                 55.08    146.79     65.34      0.00
  173                  0.00    146.77     65.33      0.00
  177                 81.44    146.40     59.97      0.00
  179                  0.00    146.37     59.96      0.00
  181                  0.00    146.44     59.98      0.00
  183                  0.00    146.37     58.66      0.00
  184                  0.00    145.27     56.01      0.00
  185                 35.91    145.78     56.23      0.00
  187                  0.00    146.38     58.01      0.00
  189                151.09    146.69     61.83      0.00
  191                114.66    146.58     52.68      0.00
  193                 99.83    146.68     55.76      0.00
  195                  0.00    146.75     56.87      0.00
  197                 23.86    146.58     53.55      0.00
  199                167.05    142.10     62.44      0.00
  201                 62.45    141.46     61.25      0.00
  203               3980.98    141.33     60.37      0.00
  204                  0.00    146.17     54.24      0.00
  205                 91.50    142.05     52.45      0.00
  206                  0.00    140.99     60.66      0.00
  207                 97.15    141.34     57.34      0.00
  208                  0.00    140.61     53.99      0.00
  209                  1.22    139.94     61.50      0.00
  211                 12.14    139.72     57.51      0.00
  213                 19.52    139.64     57.47      0.00
  215                129.07    139.43     57.38      0.00
  217                 33.91    139.41     57.80      0.00
  219                 57.85    139.39     58.67      0.00
  225                 31.92    139.40     56.93      0.00
  229                 89.85    139.43     55.87      0.00
  231                 23.07    139.43     58.25      0.00
  237                 21.85    139.50     54.38      0.00
  239                 62.45    139.48     54.81      0.00
  241                  0.00    139.48     54.81      0.00
  243                  6.08    139.48     54.37      0.00
  247                 98.53    139.48     52.64      0.00
  249                  0.00    139.48     52.64      0.00
  251                 33.82    139.48     47.44      0.00
  253                 76.33    139.47     44.84      0.00
  255                 56.55    139.53     48.76      0.00
  257                  0.00    152.36     58.65      0.00
  259                  0.00    151.93     55.00      0.00
  261                  0.00    150.35     65.15      0.00
  263                  0.00    150.19     65.08      0.00
  265                  0.00    148.40     64.30      0.00
  267                  0.00    146.73     54.48      0.00
  269                  0.00    147.13     63.75      0.00
  271                  0.00    146.53     60.89      0.00
  273                  0.00    142.05     58.08      0.00
  275                  0.00    141.46     56.96      0.00
  River           -13148.27    220.00      0.00      0.00  Reservoir
  Lake                 0.00    167.00      0.00      0.00  Reservoir
  1                  633.90    145.08      5.71      0.00  Tank
  2                 -233.65    139.92     10.15      0.00  Tank
  3                 2347.37    158.07     12.60      0.00  Tank
   
   
  Link Results at 0:05:00 hrs:
  ----------------------------------------------
                       Flow  Velocity  Headloss
  Link                  gpm       fps   /1000ft
  ----------------------------------------------
  20               -2347.37      0.10      0.00
  40                -633.90      0.03      0.00
  50                 233.65      0.01      0.00
  60               13148.27      9.32      8.92
  101                  0.00      0.00      0.00
  103                157.94      0.25      0.02
  105               -423.87      1.20      0.52
  107                 22.64      0.06      0.00
  109                -28.54      0.05      0.00
  111               -352.50      1.00      0.37
  112                481.13      1.36      0.65
  113               -112.12      0.32      0.04
  114                116.76      0.75      0.34
  115                -53.85      0.34      0.08
  116                -23.37      0.07      0.00
  117                636.04      1.80      1.10
  119               -724.69      2.06      1.40
  120               1159.49      3.29      3.33
  121               1037.94      2.94      2.72
  122                366.02      2.34      2.84
  123               9714.02      4.41      1.69
  125              13148.27      5.97      2.97
  129               3009.94      2.13      0.67
  131               2731.38      1.94      0.56
  133              -2347.37      2.40      1.02
  135                359.29      0.25      0.01
  137                 59.85      0.10      0.00
  145                299.44      1.91      1.96
  147                291.19      1.86      1.86
  149               -607.10      3.87      7.25
  151               -598.42      3.82      7.06
  153                329.70      0.94      0.32
  155                368.38      1.05      0.40
  159               -380.35      1.08      0.42
  161               -418.25      2.67      3.64
  163               -152.89      0.43      0.08
  169                214.72      1.37      1.06
  171                467.64      1.33      0.62
  173               7840.31      3.56      1.14
  175               7767.80      3.53      1.12
  177               7709.95      3.50      1.10
  179               7433.50      3.37      1.03
  180                  3.64      0.01      0.00
  181                  3.64      0.01      0.00
  183               7202.18      3.27      0.97
  185                -20.38      0.13      0.01
  186                312.82      2.00      2.12
  187               6552.21      2.97      0.82
  189               4416.25      2.00      0.39
  191              -2080.88      1.48      0.34
  193              -1553.90      1.10      0.20
  195                664.56      1.89      1.19
  197                583.12      1.65      0.93
  199                -50.78      0.14      0.01
  201               -633.90      1.80      1.09
  202                503.38      3.21      5.12
  203                226.47      1.45      1.17
  204                503.38      1.43      0.71
  205                312.82      0.89      0.29
  207                277.25      0.79      0.24
  209                161.18      1.03      0.62
  211                629.58      1.79      1.08
  213                151.63      0.43      0.08
  215                 97.52      0.28      0.03
  217               -248.11      0.70      0.19
  219               -254.33      0.72      0.20
  221                254.33      1.62      1.45
  223                 18.18      0.05      0.00
  225                 42.04      0.12      0.01
  229               4416.25      3.13      1.17
  231               4102.83      2.91      1.02
  233               3980.98      2.82      1.12
  235                146.38      0.42      0.07
  237                456.35      1.29      0.59
  238                520.50      1.48      0.76
  239                161.29      0.46      0.09
  240                520.50      1.48      0.76
  241                520.50      1.48      0.76
  243                519.28      0.83      0.19
  245                329.79      0.53      0.08
  247                252.74      0.40      0.05
  249                123.68      0.20      0.01
  251                 57.85      0.12      0.01
  257                 31.92      0.09      0.00
  261                 57.53      0.37      0.09
  263                 23.07      0.07      0.00
  269                177.35      0.50      0.10
  271                 55.39      0.35      0.09
  273                100.11      0.28      0.04
  275                 17.88      0.05      0.00
  277                  6.08      0.02      0.00
  281                 11.81      0.05      0.00
  283                 19.77      0.06      0.00
  285                -24.87      0.07      0.00
  287                -61.86      0.25      0.04
  289                233.65      0.95      0.42
  291                 76.33      0.31      0.05
  293                 38.93      0.25      0.04
  295                 -5.10      0.01      0.00
  297                487.58      3.11      4.83
  299                234.27      1.50      1.24
  301                234.27      1.50      1.24
  303                253.32      1.62      1.44
  305                148.45      0.42      0.07
  307                401.77      1.14      0.47
  309                214.50      1.37      1.06
  311               -116.98      0.33      0.05
  313                492.01      1.40      0.68
  315              -2218.46      1.57      0.38
  317                101.90      0.65      0.27
  319                 44.48      0.13      0.01
  321               7416.67      3.37      1.03
  323                 59.39      0.17      0.01
  325                137.58      0.88      0.46
  329              13148.27      5.97      3.01
  330                  0.00      0.00      0.00
  333                 -0.00      0.00      0.00
  10                   0.00      0.00      0.00  Pump
  335              13148.27      0.00    -93.53  Pump
   
   
  Node Results at 0:10:00 hrs:
  --------------------------------------------------------
                     Demand      Head  Pressure  Chemical
  Node                  gpm        ft       psi      mg/L
  --------------------------------------------------------
  10                   0.00    145.94     -0.46      0.00
  15                 598.42    127.94     41.57      0.00
  20                   0.00    158.15     12.63      0.00
  35                1553.90    146.48     58.05      0.00
  40                   0.00    145.15      5.74      0.00
  50                   0.00    139.84     10.11      0.00
  60                   0.00    209.03     90.57      0.00
  601                  0.00    302.57    131.11      0.00
  61                   0.00    302.57    131.11      0.00
  101                265.93    145.94     45.04      0.00
  103                186.48    145.92     44.59      0.00
  105                189.52    147.26     51.46      0.00
  107                 76.50    147.25     54.27      0.00
  109                323.96    145.92     54.43      0.00
  111                198.72    146.65     59.21      0.00
  113                 28.01    146.73     62.71      0.00
  115                 72.94    147.41     57.81      0.00
  117                164.79    150.46     59.30      0.00
  119                246.58    157.97     67.58      0.00
  120                  0.00    155.54     67.40      0.00
  121                 58.28    161.36     70.79      0.00
  123                  0.00    165.81     67.08      0.00
  125                 63.84    160.75     64.88      0.00
  127                 24.72    158.95     44.61      0.00
  129                  0.00    158.94     46.77      0.00
  131                 59.85    158.91     66.26      0.00
  139                  8.25    153.55     53.10      0.00
  141                 13.79    149.73     63.15      0.00
  143                  8.68    139.59     62.43      0.00
  145                 38.68    150.87     64.94      0.00
  147                 11.97    151.75     57.74      0.00
  149                 37.90    152.12     58.98      0.00
  151                202.27    155.83     53.01      0.00
  153                 61.84    155.92     38.88      0.00
  157                 72.51    155.60     61.75      0.00
  159                 57.85    152.34     63.41      0.00
  161                 22.12    150.13     63.32      0.00
  163                 13.19    149.69     62.69      0.00
  164                  0.00    149.69     62.69      0.00
  166                  3.64    149.69     65.73      0.00
  167                 20.38    147.88     66.24      0.00
  169                  0.00    147.88     66.24      0.00
  171                 55.08    146.84     65.36      0.00
  173                  0.00    146.82     65.35      0.00
  177                 81.44    146.45     59.99      0.00
  179                  0.00    146.43     59.98      0.00
  181                  0.00    146.49     60.01      0.00
  183                  0.00    146.43     58.68      0.00
  184                  0.00    145.32     56.03      0.00
  185                 35.91    145.83     56.26      0.00
  187                  0.00    146.43     58.03      0.00
  189                151.09    146.75     61.85      0.00
  191                114.66    146.63     52.70      0.00
  193                 99.83    146.73     55.78      0.00
  195                  0.00    146.80     56.89      0.00
  197                 23.86    146.63     53.57      0.00
  199                167.05    142.14     62.46      0.00
  201                 62.45    141.50     61.27      0.00
  203               3980.98    141.36     60.39      0.00
  204                  0.00    146.22     54.26      0.00
  205                 91.50    142.08     52.46      0.00
  206                  0.00    141.01     60.67      0.00
  207                 97.15    141.36     57.35      0.00
  208                  0.00    140.61     53.99      0.00
  209                  1.22    139.92     61.49      0.00
  211                 12.14    139.69     57.49      0.00
  213                 19.52    139.61     57.46      0.00
  215                129.07    139.40     57.37      0.00
  217                 33.91    139.38     57.79      0.00
  219                 57.85    139.37     58.65      0.00
  225                 31.92    139.37     56.92      0.00
  229                 89.85    139.40     55.85      0.00
  231                 23.07    139.39     58.23      0.00
  237                 21.85    139.46     54.36      0.00
  239                 62.45    139.44     54.79      0.00
  241                  0.00    139.44     54.79      0.00
  243                  6.08    139.44     54.35      0.00
  247                 98.53    139.44     52.62      0.00
  249                  0.00    139.44     52.62      0.00
  251                 33.82    139.44     47.42      0.00
  253                 76.33    139.42     44.81      0.00
  255                 56.55    139.48     48.74      0.00
  257                  0.00    152.42     58.68      0.00
  259                  0.00    151.99     55.02      0.00
  261                  0.00    150.41     65.17      0.00
  263                  0.00    150.25     65.10      0.00
  265                  0.00    148.45     64.33      0.00
  267                  0.00    146.79     54.50      0.00
  269                  0.00    147.19     63.78      0.00
  271                  0.00    146.59     60.92      0.00
  273                  0.00    142.09     58.10      0.00
  275                  0.00    141.49     56.98      0.00
  River           -13146.21    220.00      0.00      0.00  Reservoir
  Lake                 0.00    167.00      0.00      0.00  Reservoir
  1                  628.47    145.15      5.74      0.00  Tank
  2                 -224.80    139.84     10.11      0.00  Tank
  3                 2341.89    158.15     12.63      0.00  Tank
   
   
  Link Results at 0:10:00 hrs:
  ----------------------------------------------
                       Flow  Velocity  Headloss
  Link                  gpm       fps   /1000ft
  ----------------------------------------------
  20               -2341.89      0.10      0.00
  40                -628.47      0.03      0.00
  50                 224.80      0.01      0.00
  60               13146.21      9.32      8.91
  101                  0.00      0.00      0.00
  103                158.05      0.25      0.02
  105               -423.98      1.20      0.52
  107                 22.71      0.06      0.00
  109                -28.43      0.05      0.00
  111               -352.39      1.00      0.37
  112                481.37      1.37      0.65
  113               -112.02      0.32      0.04
  114                116.84      0.75      0.34
  115                -53.79      0.34      0.08
  116                -23.19      0.07      0.00
  117                636.20      1.80      1.10
  119               -724.93      2.06      1.40
  120               1159.80      3.29      3.34
  121               1038.22      2.95      2.72
  122                366.13      2.34      2.84
  123               9717.17      4.41      1.69
  125              13146.21      5.97      2.97
  129               3004.63      2.13      0.66
  131               2726.00      1.93      0.55
  133              -2341.89      2.39      1.02
  135                359.39      0.25      0.01
  137                 59.85      0.10      0.00
  145                299.54      1.91      1.96
  147                291.30      1.86      1.86
  149               -607.10      3.87      7.25
  151               -598.42      3.82      7.06
  153                329.59      0.93      0.32
  155                368.28      1.04      0.40
  159               -380.25      1.08      0.42
  161               -418.14      2.67      3.63
  163               -152.95      0.43      0.08
  169                214.79      1.37      1.06
  171                467.47      1.33      0.62
  173               7843.32      3.56      1.14
  175               7770.82      3.53      1.12
  177               7712.97      3.50      1.10
  179               7436.48      3.38      1.03
  180                  3.64      0.01      0.00
  181                  3.64      0.01      0.00
  183               7205.18      3.27      0.97
  185                -20.38      0.13      0.01
  186                313.34      2.00      2.13
  187               6555.37      2.98      0.82
  189               4423.95      2.01      0.39
  191              -2076.35      1.47      0.34
  193              -1553.90      1.10      0.20
  195                660.05      1.87      1.17
  197                578.61      1.64      0.92
  199                -49.86      0.14      0.01
  201               -628.47      1.78      1.07
  202                504.54      3.22      5.15
  203                227.11      1.45      1.17
  204                504.54      1.43      0.71
  205                313.34      0.89      0.30
  207                276.97      0.79      0.24
  209                161.37      1.03      0.62
  211                629.42      1.79      1.08
  213                151.96      0.43      0.08
  215                 97.61      0.28      0.03
  217               -248.20      0.70      0.19
  219               -254.37      0.72      0.20
  221                254.37      1.62      1.45
  223                 18.42      0.05      0.00
  225                 42.27      0.12      0.01
  229               4423.95      3.14      1.17
  231               4108.50      2.91      1.02
  233               3980.98      2.82      1.12
  235                148.40      0.42      0.07
  237                459.44      1.30      0.60
  238                529.35      1.50      0.78
  239                167.06      0.47      0.09
  240                529.35      1.50      0.78
  241                529.35      1.50      0.78
  243                528.14      0.84      0.19
  245                331.53      0.53      0.08
  247                252.74      0.40      0.05
  249                123.68      0.20      0.01
  251                 57.85      0.12      0.01
  257                 31.92      0.09      0.00
  261                 59.27      0.38      0.10
  263                 23.07      0.07      0.00
  269                184.47      0.52      0.11
  271                 53.65      0.34      0.08
  273                108.96      0.31      0.04
  275                 21.19      0.06      0.00
  277                  6.08      0.02      0.00
  281                 15.12      0.06      0.00
  283                 25.32      0.07      0.00
  285                -27.04      0.08      0.00
  287                -56.38      0.23      0.03
  289                224.80      0.92      0.39
  291                 76.33      0.31      0.05
  293                 35.54      0.23      0.04
  295                 -1.72      0.00      0.00
  297                487.71      3.11      4.83
  299                234.33      1.50      1.24
  301                234.33      1.50      1.24
  303                253.38      1.62      1.44
  305                148.49      0.42      0.07
  307                401.87      1.14      0.47
  309                214.48      1.37      1.06
  311               -116.86      0.33      0.05
  313                491.82      1.40      0.68
  315              -2213.95      1.57      0.38
  317                101.99      0.65      0.27
  319                 46.41      0.13      0.01
  321               7419.65      3.37      1.03
  323                 65.07      0.18      0.02
  325                137.61      0.88      0.46
  329              13146.21      5.97      3.01
  330                  0.00      0.00      0.00
  333                 -0.00      0.00      0.00
  10                   0.00      0.00      0.00  Pump
  335              13146.21      0.00    -93.55  Pump
   
   
  Node Results at 0:15:00 hrs:
  --------------------------------------------------------
                     Demand      Head  Pressure  Chemical
  Node                  gpm        ft       psi      mg/L
  --------------------------------------------------------
  10                   0.00    146.00     -0.43      0.00
  15                 598.42    128.01     41.60      0.00
  20                   0.00    158.22     12.66      0.00
  35                1553.90    146.54     58.08      0.00
  40                   0.00    145.22      5.77      0.00
  50                   0.00    139.76     10.08      0.00
  60                   0.00    209.03     90.57      0.00
  601                  0.00    302.60    131.11      0.00
  61                   0.00    302.60    131.11      0.00
  101                265.93    146.00     45.06      0.00
  103                186.48    145.97     44.62      0.00
  105                189.52    147.31     51.48      0.00
  107                 76.50    147.31     54.30      0.00
  109                323.96    145.97     54.45      0.00
  111                198.72    146.71     59.24      0.00
  113                 28.01    146.78     62.73      0.00
  115                 72.94    147.47     57.83      0.00
  117                164.79    150.51     59.33      0.00
  119                246.58    158.03     67.61      0.00
  120                  0.00    155.60     67.42      0.00
  121                 58.28    161.43     70.81      0.00
  123                  0.00    165.87     67.11      0.00
  125                 63.84    160.81     64.91      0.00
  127                 24.72    159.02     44.64      0.00
  129                  0.00    159.01     46.80      0.00
  131                 59.85    158.98     66.29      0.00
  139                  8.25    153.62     53.13      0.00
  141                 13.79    149.80     63.17      0.00
  143                  8.68    139.65     62.46      0.00
  145                 38.68    150.94     64.97      0.00
  147                 11.97    151.81     57.77      0.00
  149                 37.90    152.19     59.01      0.00
  151                202.27    155.89     53.03      0.00
  153                 61.84    155.98     38.90      0.00
  157                 72.51    155.66     61.77      0.00
  159                 57.85    152.40     63.43      0.00
  161                 22.12    150.19     63.34      0.00
  163                 13.19    149.74     62.72      0.00
  164                  0.00    149.74     62.72      0.00
  166                  3.64    149.74     65.75      0.00
  167                 20.38    147.93     66.27      0.00
  169                  0.00    147.93     66.27      0.00
  171                 55.08    146.89     65.38      0.00
  173                  0.00    146.87     65.37      0.00
  177                 81.44    146.51     60.02      0.00
  179                  0.00    146.48     60.00      0.00
  181                  0.00    146.54     60.03      0.00
  183                  0.00    146.48     58.70      0.00
  184                  0.00    145.36     56.05      0.00
  185                 35.91    145.88     56.28      0.00
  187                  0.00    146.49     58.06      0.00
  189                151.09    146.80     61.87      0.00
  191                114.66    146.69     52.73      0.00
  193                 99.83    146.79     55.80      0.00
  195                  0.00    146.86     56.92      0.00
  197                 23.86    146.69     53.59      0.00
  199                167.05    142.18     62.47      0.00
  201                 62.45    141.53     61.28      0.00
  203               3980.98    141.40     60.40      0.00
  204                  0.00    146.27     54.28      0.00
  205                 91.50    142.12     52.48      0.00
  206                  0.00    141.03     60.67      0.00
  207                 97.15    141.39     57.36      0.00
  208                  0.00    140.62     54.00      0.00
  209                  1.22    139.90     61.49      0.00
  211                 12.14    139.67     57.48      0.00
  213                 19.52    139.58     57.45      0.00
  215                129.07    139.38     57.36      0.00
  217                 33.91    139.35     57.78      0.00
  219                 57.85    139.34     58.64      0.00
  225                 31.92    139.35     56.91      0.00
  229                 89.85    139.36     55.83      0.00
  231                 23.07    139.35     58.22      0.00
  237                 21.85    139.42     54.34      0.00
  239                 62.45    139.39     54.77      0.00
  241                  0.00    139.39     54.77      0.00
  243                  6.08    139.39     54.33      0.00
  247                 98.53    139.39     52.60      0.00
  249                  0.00    139.39     52.60      0.00
  251                 33.82    139.39     47.40      0.00
  253                 76.33    139.37     44.79      0.00
  255                 56.55    139.43     48.71      0.00
  257                  0.00    152.48     58.70      0.00
  259                  0.00    152.04     55.05      0.00
  261                  0.00    150.47     65.20      0.00
  263                  0.00    150.30     65.13      0.00
  265                  0.00    148.51     64.35      0.00
  267                  0.00    146.84     54.53      0.00
  269                  0.00    147.24     63.80      0.00
  271                  0.00    146.64     60.94      0.00
  273                  0.00    142.12     58.12      0.00
  275                  0.00    141.53     56.99      0.00
  River           -13144.16    220.00      0.00      0.00  Reservoir
  Lake                 0.00    167.00      0.00      0.00  Reservoir
  1                  623.19    145.22      5.77      0.00  Tank
  2                 -216.15    139.76     10.08      0.00  Tank
  3                 2336.46    158.22     12.66      0.00  Tank
   
   
  Link Results at 0:15:00 hrs:
  ----------------------------------------------
                       Flow  Velocity  Headloss
  Link                  gpm       fps   /1000ft
  ----------------------------------------------
  20               -2336.46      0.10      0.00
  40                -623.19      0.03      0.00
  50                 216.15      0.01      0.00
  60               13144.16      9.32      8.91
  101                  0.00      0.00      0.00
  103                158.15      0.25      0.02
  105               -424.08      1.20      0.52
  107                 22.77      0.06      0.00
  109                -28.33      0.05      0.00
  111               -352.29      1.00      0.37
  112                481.60      1.37      0.65
  113               -111.92      0.32      0.04
  114                116.91      0.75      0.34
  115                -53.73      0.34      0.08
  116                -23.02      0.07      0.00
  117                636.37      1.81      1.10
  119               -725.18      2.06      1.40
  120               1160.09      3.29      3.34
  121               1038.49      2.95      2.72
  122                366.24      2.34      2.84
  123               9720.27      4.41      1.70
  125              13144.16      5.97      2.97
  129               2999.37      2.13      0.66
  131               2720.68      1.93      0.55
  133              -2336.46      2.39      1.01
  135                359.50      0.25      0.01
  137                 59.85      0.10      0.00
  145                299.65      1.91      1.96
  147                291.40      1.86      1.86
  149               -607.10      3.87      7.25
  151               -598.42      3.82      7.06
  153                329.49      0.93      0.32
  155                368.17      1.04      0.40
  159               -380.14      1.08      0.42
  161               -418.04      2.67      3.63
  163               -153.01      0.43      0.08
  169                214.85      1.37      1.06
  171                467.30      1.33      0.62
  173               7846.29      3.56      1.14
  175               7773.78      3.53      1.12
  177               7715.94      3.50      1.11
  179               7439.41      3.38      1.03
  180                  3.64      0.01      0.00
  181                  3.64      0.01      0.00
  183               7208.13      3.27      0.97
  185                -20.38      0.13      0.01
  186                313.85      2.00      2.14
  187               6558.48      2.98      0.82
  189               4431.46      2.01      0.40
  191              -2071.94      1.47      0.33
  193              -1553.90      1.10      0.20
  195                655.67      1.86      1.16
  197                574.23      1.63      0.91
  199                -48.96      0.14      0.01
  201               -623.19      1.77      1.06
  202                505.67      3.23      5.17
  203                227.74      1.45      1.18
  204                505.67      1.43      0.72
  205                313.85      0.89      0.30
  207                276.70      0.78      0.23
  209                161.56      1.03      0.62
  211                629.27      1.79      1.07
  213                152.29      0.43      0.08
  215                 97.71      0.28      0.03
  217               -248.30      0.70      0.19
  219               -254.40      0.72      0.20
  221                254.40      1.62      1.45
  223                 18.65      0.05      0.00
  225                 42.50      0.12      0.01
  229               4431.46      3.14      1.17
  231               4114.01      2.92      1.02
  233               3980.98      2.82      1.12
  235                150.41      0.43      0.08
  237                462.49      1.31      0.61
  238                538.00      1.53      0.80
  239                172.66      0.49      0.10
  240                538.00      1.53      0.80
  241                538.00      1.53      0.80
  243                536.79      0.86      0.20
  245                333.26      0.53      0.08
  247                252.74      0.40      0.05
  249                123.68      0.20      0.01
  251                 57.85      0.12      0.01
  257                 31.92      0.09      0.00
  261                 61.00      0.39      0.10
  263                 23.07      0.07      0.00
  269                191.39      0.54      0.12
  271                 51.93      0.33      0.08
  273                117.61      0.33      0.05
  275                 24.43      0.07      0.00
  277                  6.08      0.02      0.00
  281                 18.35      0.07      0.00
  283                 30.73      0.09      0.00
  285                -29.12      0.08      0.00
  287                -51.06      0.21      0.02
  289                216.15      0.88      0.36
  291                 76.33      0.31      0.05
  293                 32.21      0.21      0.03
  295                  1.61      0.00      0.00
  297                487.84      3.11      4.83
  299                234.39      1.50      1.24
  301                234.39      1.50      1.24
  303                253.45      1.62      1.44
  305                148.52      0.42      0.07
  307                401.97      1.14      0.47
  309                214.46      1.37      1.06
  311               -116.75      0.33      0.05
  313                491.63      1.39      0.68
  315              -2209.57      1.57      0.38
  317                102.09      0.65      0.27
  319                 48.32      0.14      0.01
  321               7422.58      3.37      1.03
  323                 70.57      0.20      0.02
  325                137.63      0.88      0.46
  329              13144.16      5.97      3.00
  330                  0.00      0.00      0.00
  333                 -0.00      0.00      0.00
  10                   0.00      0.00      0.00  Pump
  335              13144.16      0.00    -93.56  Pump
   
   
  Node Results at 0:20:00 hrs:
  --------------------------------------------------------
                     Demand      Head  Pressure  Chemical
  Node                  gpm        ft       psi      mg/L
  --------------------------------------------------------
  10                   0.00    146.05     -0.41      0.00
  15                 598.42    128.07     41.63      0.00
  20                   0.00    158.30     12.69      0.00
  35                1553.90    146.59     58.10      0.00
  40                   0.00    145.30      5.81      0.00
  50                   0.00    139.69     10.05      0.00
  60                   0.00    209.04     90.57      0.00
  601                  0.00    302.62    131.12      0.00
  61                   0.00    302.62    131.12      0.00
  101                265.93    146.05     45.09      0.00
  103                186.48    146.02     44.64      0.00
  105                189.52    147.37     51.51      0.00
  107                 76.50    147.36     54.32      0.00
  109                323.96    146.03     54.48      0.00
  111                198.72    146.76     59.26      0.00
  113                 28.01    146.84     62.76      0.00
  115                 72.94    147.52     57.86      0.00
  117                164.79    150.57     59.35      0.00
  119                246.58    158.09     67.64      0.00
  120                  0.00    155.66     67.45      0.00
  121                 58.28    161.49     70.84      0.00
  123                  0.00    165.93     67.13      0.00
  125                 63.84    160.87     64.94      0.00
  127                 24.72    159.09     44.67      0.00
  129                  0.00    159.08     46.83      0.00
  131                 59.85    159.06     66.32      0.00
  139                  8.25    153.68     53.16      0.00
  141                 13.79    149.86     63.20      0.00
  143                  8.68    139.72     62.49      0.00
  145                 38.68    151.00     65.00      0.00
  147                 11.97    151.88     57.79      0.00
  149                 37.90    152.25     59.04      0.00
  151                202.27    155.95     53.06      0.00
  153                 61.84    156.04     38.93      0.00
  157                 72.51    155.72     61.80      0.00
  159                 57.85    152.46     63.46      0.00
  161                 22.12    150.24     63.37      0.00
  163                 13.19    149.80     62.74      0.00
  164                  0.00    149.80     62.74      0.00
  166                  3.64    149.80     65.77      0.00
  167                 20.38    147.99     66.29      0.00
  169                  0.00    147.99     66.29      0.00
  171                 55.08    146.95     65.40      0.00
  173                  0.00    146.93     65.40      0.00
  177                 81.44    146.56     60.04      0.00
  179                  0.00    146.53     60.03      0.00
  181                  0.00    146.60     60.05      0.00
  183                  0.00    146.54     58.73      0.00
  184                  0.00    145.41     56.08      0.00
  185                 35.91    145.93     56.30      0.00
  187                  0.00    146.54     58.08      0.00
  189                151.09    146.85     61.90      0.00
  191                114.66    146.74     52.75      0.00
  193                 99.83    146.84     55.83      0.00
  195                  0.00    146.91     56.94      0.00
  197                 23.86    146.74     53.62      0.00
  199                167.05    142.22     62.49      0.00
  201                 62.45    141.57     61.30      0.00
  203               3980.98    141.44     60.42      0.00
  204                  0.00    146.33     54.30      0.00
  205                 91.50    142.15     52.50      0.00
  206                  0.00    141.04     60.68      0.00
  207                 97.15    141.41     57.38      0.00
  208                  0.00    140.62     54.00      0.00
  209                  1.22    139.89     61.48      0.00
  211                 12.14    139.64     57.47      0.00
  213                 19.52    139.56     57.44      0.00
  215                129.07    139.35     57.35      0.00
  217                 33.91    139.33     57.77      0.00
  219                 57.85    139.32     58.63      0.00
  225                 31.92    139.32     56.90      0.00
  229                 89.85    139.32     55.82      0.00
  231                 23.07    139.32     58.20      0.00
  237                 21.85    139.38     54.33      0.00
  239                 62.45    139.35     54.75      0.00
  241                  0.00    139.35     54.75      0.00
  243                  6.08    139.35     54.31      0.00
  247                 98.53    139.35     52.58      0.00
  249                  0.00    139.35     52.58      0.00
  251                 33.82    139.35     47.38      0.00
  253                 76.33    139.32     44.77      0.00
  255                 56.55    139.38     48.69      0.00
  257                  0.00    152.54     58.73      0.00
  259                  0.00    152.10     55.07      0.00
  261                  0.00    150.52     65.22      0.00
  263                  0.00    150.36     65.15      0.00
  265                  0.00    148.56     64.37      0.00
  267                  0.00    146.89     54.55      0.00
  269                  0.00    147.29     63.82      0.00
  271                  0.00    146.69     60.96      0.00
  273                  0.00    142.16     58.13      0.00
  275                  0.00    141.56     57.01      0.00
  River           -13142.10    220.00      0.00      0.00  Reservoir
  Lake                 0.00    167.00      0.00      0.00  Reservoir
  1                  618.06    145.30      5.81      0.00  Tank
  2                 -207.71    139.69     10.05      0.00  Tank
  3                 2331.09    158.30     12.69      0.00  Tank
   
   
  Link Results at 0:20:00 hrs:
  ----------------------------------------------
                       Flow  Velocity  Headloss
  Link                  gpm       fps   /1000ft
  ----------------------------------------------
  20               -2331.09      0.10      0.00
  40                -618.06      0.03      0.00
  50                 207.71      0.01      0.00
  60               13142.10      9.32      8.91
  101                  0.00      0.00      0.00
  103                158.25      0.25      0.02
  105               -424.18      1.20      0.52
  107                 22.83      0.06      0.00
  109                -28.23      0.05      0.00
  111               -352.19      1.00      0.37
  112                481.82      1.37      0.66
  113               -111.82      0.32      0.04
  114                116.98      0.75      0.34
  115                -53.66      0.34      0.08
  116                -22.85      0.06      0.00
  117                636.53      1.81      1.10
  119               -725.41      2.06      1.40
  120               1160.39      3.29      3.34
  121               1038.76      2.95      2.72
  122                366.35      2.34      2.84
  123               9723.31      4.41      1.70
  125              13142.10      5.97      2.96
  129               2994.16      2.12      0.66
  131               2715.42      1.93      0.55
  133              -2331.09      2.38      1.01
  135                359.60      0.26      0.01
  137                 59.85      0.10      0.00
  145                299.75      1.91      1.96
  147                291.50      1.86      1.86
  149               -607.10      3.87      7.25
  151               -598.42      3.82      7.06
  153                329.39      0.93      0.32
  155                368.07      1.04      0.40
  159               -380.04      1.08      0.42
  161               -417.94      2.67      3.63
  163               -153.07      0.43      0.08
  169                214.91      1.37      1.06
  171                467.14      1.33      0.62
  173               7849.20      3.56      1.14
  175               7776.70      3.53      1.12
  177               7718.85      3.50      1.11
  179               7442.29      3.38      1.03
  180                  3.64      0.01      0.00
  181                  3.64      0.01      0.00
  183               7211.02      3.27      0.98
  185                -20.38      0.13      0.01
  186                314.34      2.01      2.14
  187               6561.52      2.98      0.82
  189               4438.80      2.01      0.40
  191              -2067.65      1.47      0.33
  193              -1553.90      1.10      0.20
  195                651.41      1.85      1.15
  197                569.98      1.62      0.89
  199                -48.09      0.14      0.01
  201               -618.06      1.75      1.04
  202                506.78      3.23      5.19
  203                228.35      1.46      1.19
  204                506.78      1.44      0.72
  205                314.34      0.89      0.30
  207                276.43      0.78      0.23
  209                161.74      1.03      0.63
  211                629.12      1.78      1.07
  213                152.60      0.43      0.08
  215                 97.81      0.28      0.03
  217               -248.39      0.70      0.19
  219               -254.44      0.72      0.20
  221                254.44      1.62      1.45
  223                 18.88      0.05      0.00
  225                 42.73      0.12      0.01
  229               4438.80      3.15      1.18
  231               4119.34      2.92      1.03
  233               3980.98      2.82      1.12
  235                152.41      0.43      0.08
  237                465.51      1.32      0.62
  238                546.45      1.55      0.83
  239                178.09      0.51      0.10
  240                546.45      1.55      0.83
  241                546.45      1.55      0.83
  243                545.23      0.87      0.20
  245                334.97      0.53      0.08
  247                252.74      0.40      0.05
  249                123.68      0.20      0.01
  251                 57.85      0.12      0.01
  257                 31.92      0.09      0.00
  261                 62.71      0.40      0.11
  263                 23.07      0.07      0.00
  269                198.12      0.56      0.13
  271                 50.21      0.32      0.07
  273                126.05      0.36      0.05
  275                 27.58      0.08      0.00
  277                  6.08      0.02      0.00
  281                 21.51      0.09      0.01
  283                 36.02      0.10      0.01
  285                -31.19      0.09      0.00
  287                -45.83      0.19      0.02
  289                207.71      0.85      0.34
  291                 76.33      0.31      0.05
  293                 29.00      0.19      0.03
  295                  4.83      0.01      0.00
  297                487.97      3.11      4.84
  299                234.45      1.50      1.24
  301                234.45      1.50      1.24
  303                253.52      1.62      1.44
  305                148.56      0.42      0.07
  307                402.07      1.14      0.47
  309                214.44      1.37      1.05
  311               -116.63      0.33      0.05
  313                491.45      1.39      0.68
  315              -2205.31      1.56      0.37
  317                102.18      0.65      0.27
  319                 50.23      0.14      0.01
  321               7425.46      3.37      1.03
  323                 75.91      0.22      0.02
  325                137.66      0.88      0.46
  329              13142.10      5.97      3.00
  330                  0.00      0.00      0.00
  333                 -0.00      0.00      0.00
  10                   0.00      0.00      0.00  Pump
  335              13142.10      0.00    -93.58  Pump
   
   
  Node Results at 0:25:00 hrs:
  --------------------------------------------------------
                     Demand      Head  Pressure  Chemical
  Node                  gpm        ft       psi      mg/L
  --------------------------------------------------------
  10                   0.00    146.11     -0.39      0.00
  15                 598.42    128.14     41.66      0.00
  20                   0.00    158.37     12.73      0.00
  35                1553.90    146.64     58.12      0.00
  40                   0.00    145.37      5.84      0.00
  50                   0.00    139.62     10.02      0.00
  60                   0.00    209.04     90.58      0.00
  601                  0.00    302.64    131.13      0.00
  61                   0.00    302.64    131.13      0.00
  101                265.93    146.11     45.11      0.00
  103                186.48    146.08     44.66      0.00
  105                189.52    147.42     51.53      0.00
  107                 76.50    147.42     54.34      0.00
  109                323.96    146.08     54.50      0.00
  111                198.72    146.82     59.28      0.00
  113                 28.01    146.89     62.78      0.00
  115                 72.94    147.58     57.88      0.00
  117                164.79    150.63     59.37      0.00
  119                246.58    158.15     67.66      0.00
  120                  0.00    155.72     67.47      0.00
  121                 58.28    161.55     70.87      0.00
  123                  0.00    166.00     67.16      0.00
  125                 63.84    160.94     64.97      0.00
  127                 24.72    159.16     44.70      0.00
  129                  0.00    159.15     46.86      0.00
  131                 59.85    159.13     66.35      0.00
  139                  8.25    153.75     53.19      0.00
  141                 13.79    149.93     63.23      0.00
  143                  8.68    139.78     62.52      0.00
  145                 38.68    151.07     65.02      0.00
  147                 11.97    151.94     57.82      0.00
  149                 37.90    152.31     59.06      0.00
  151                202.27    156.01     53.09      0.00
  153                 61.84    156.11     38.96      0.00
  157                 72.51    155.78     61.82      0.00
  159                 57.85    152.51     63.48      0.00
  161                 22.12    150.30     63.39      0.00
  163                 13.19    149.85     62.76      0.00
  164                  0.00    149.85     62.76      0.00
  166                  3.64    149.85     65.80      0.00
  167                 20.38    148.04     66.31      0.00
  169                  0.00    148.04     66.31      0.00
  171                 55.08    147.00     65.43      0.00
  173                  0.00    146.98     65.42      0.00
  177                 81.44    146.62     60.06      0.00
  179                  0.00    146.59     60.05      0.00
  181                  0.00    146.65     60.08      0.00
  183                  0.00    146.59     58.75      0.00
  184                  0.00    145.46     56.10      0.00
  185                 35.91    145.98     56.32      0.00
  187                  0.00    146.59     58.10      0.00
  189                151.09    146.91     61.92      0.00
  191                114.66    146.79     52.77      0.00
  193                 99.83    146.89     55.85      0.00
  195                  0.00    146.97     56.96      0.00
  197                 23.86    146.80     53.64      0.00
  199                167.05    142.25     62.51      0.00
  201                 62.45    141.61     61.31      0.00
[...]
  219                 64.05    138.97     58.48     69.56
  225                 35.34    138.98     56.75     68.25
  229                 99.48    139.13     55.74    117.50
  231                 25.54    139.13     58.12     62.67
  237                 24.20    139.27     54.28    113.39
  239                 69.15    139.27     54.71     30.46
  241                  0.00    139.27     54.71     68.00
  243                  6.73    139.27     54.28      0.00
  247                109.09    139.27     52.55      1.02
  249                  0.00    139.27     52.55     27.49
  251                 37.45    139.28     47.35      0.32
  253                 84.51    139.41     44.81     19.45
  255                 62.60    139.48     48.74      0.32
  257                  0.00    152.01     58.50      0.00
  259                  0.00    151.58     54.84      0.00
  261                  0.00    149.99     64.99      0.00
  263                  0.00    149.82     64.92      0.00
  265                  0.00    148.57     64.38      0.00
  267                  0.00    146.91     54.56     28.06
  269                  0.00    147.36     63.85      0.00
  271                  0.00    146.92     61.06      0.00
  273                  0.00    141.46     57.83      0.00
  275                  0.00    140.74     56.65    210.00
  River           -13199.11    220.00      0.00      0.00  Reservoir
  Lake                 0.00    167.00      0.00      0.00  Reservoir
  1                 -600.72    148.06      7.00     14.70  Tank
  2                 -365.67    140.36     10.34      0.32  Tank
  3                  917.91    160.08     13.47      0.00  Tank
   
   
  Link Results at 23:55:00 hrs:
  ----------------------------------------------
                       Flow  Velocity  Headloss
  Link                  gpm       fps   /1000ft
  ----------------------------------------------
  20                -917.91      0.04      0.00
  40                 600.72      0.03      0.00
  50                 365.67      0.02      0.00
  60               13199.11      9.36      8.98
  101                  0.00      0.00      0.00
  103                135.75      0.22      0.02
  105               -430.17      1.22      0.53
  107                  1.52      0.00      0.00
  109                -70.71      0.11      0.00
  111               -429.38      1.22      0.53
  112                442.40      1.25      0.56
  113               -159.29      0.45      0.08
  114                 99.34      0.63      0.25
  115                -83.17      0.53      0.18
  116                -90.96      0.26      0.03
  117                641.52      1.82      1.11
  119               -705.67      2.00      1.33
  120               1168.34      3.31      3.38
  121               1040.62      2.95      2.73
  122                361.30      2.31      2.77
  123               9442.97      4.29      1.61
  125              11398.37      5.17      2.28
  129               1529.58      1.08      0.19
  131               1257.49      0.89      0.13
  133               -917.91      0.94      0.18
  135                312.21      0.22      0.01
  137                 66.26      0.11      0.00
  145                245.94      1.57      1.36
  147                236.82      1.51      1.27
  149               -391.66      2.50      3.22
  151               -382.05      2.44      3.07
  153                170.11      0.48      0.10
  155                212.94      0.60      0.14
  159               -226.19      0.64      0.16
  161               -268.15      1.71      1.60
  163               -132.95      0.38      0.06
  169                201.41      1.29      0.94
  171                359.14      1.02      0.38
  173               7642.48      3.47      1.09
  175               7562.21      3.43      1.07
  177               7498.16      3.40      1.05
  179               7216.59      3.28      0.98
  180                  4.03      0.01      0.00
  181                  4.03      0.01      0.00
  183               6983.85      3.17      0.92
  185                -22.57      0.14      0.02
  186                298.93      1.91      1.95
  187               6346.57      2.88      0.77
  189               4836.35      2.20      0.47
  191              -1449.24      1.03      0.17
  193              -1883.03      1.34      0.28
  195               -316.68      0.90      0.30
  197               -406.85      1.15      0.48
  199                193.87      0.55      0.12
  201                600.72      1.70      0.99
  202                553.09      3.53      6.10
  203                293.91      1.88      1.89
  204                553.09      1.57      0.85
  205                298.93      0.85      0.27
  207                100.04      0.28      0.04
  209                198.93      1.27      0.92
  211                614.72      1.74      1.03
  213                100.00      0.28      0.04
  215                -31.36      0.09      0.00
  217               -301.05      0.85      0.27
  219               -257.08      0.73      0.20
  221                257.08      1.64      1.48
  223                -74.11      0.21      0.02
  225                -47.69      0.14      0.01
  229               4836.35      3.43      1.38
  231               4514.21      3.20      1.21
  233               4457.20      3.16      1.38
  235                137.20      0.39      0.06
  237                475.93      1.35      0.64
  238                469.29      1.33      0.62
  239                100.91      0.29      0.04
  240                469.29      1.33      0.62
  241                469.29      1.33      0.62
  243                467.94      0.75      0.15
  245                346.85      0.55      0.09
  247                279.82      0.45      0.06
  249                136.93      0.22      0.02
  251                 64.05      0.13      0.01
  257                 35.34      0.10      0.01
  261                 45.42      0.29      0.06
  263                 25.54      0.07      0.00
  269                107.65      0.31      0.04
  271                 79.60      0.51      0.17
  273                  3.85      0.01      0.00
  275                -20.32      0.06      0.00
  277                  6.73      0.02      0.00
  281                -27.05      0.11      0.01
  283                -44.97      0.13      0.01
  285                 -0.50      0.00      0.00
  287               -135.64      0.55      0.15
  289                365.67      1.49      0.96
  291                 84.51      0.35      0.06
  293                 82.92      0.53      0.18
  295                -45.47      0.13      0.01
  297                489.02      3.12      4.86
  299                235.04      1.50      1.25
  301                235.04      1.50      1.25
  303                253.98      1.62      1.44
  305                152.50      0.43      0.08
  307                406.48      1.15      0.48
  309                214.11      1.37      1.05
  311               -245.46      0.70      0.19
  313                497.60      1.41      0.70
  315              -1566.35      1.11      0.20
  317                113.05      0.72      0.32
  319                 24.15      0.07      0.00
  321               7197.96      3.27      0.97
  323                -12.13      0.03      0.00
  325                117.11      0.75      0.34
  329              13199.11      5.99      3.03
  330                  0.00      0.00      0.00
  333                 -0.00      0.00      0.00
  10                   0.00      0.00      0.00  Pump
  335              13199.11      0.00    -93.08  Pump
   
   
  Node Results at 24:00:00 hrs:
  --------------------------------------------------------
                     Demand      Head  Pressure  Chemical
  Node                  gpm        ft       psi      mg/L
  --------------------------------------------------------
  10                   0.00    148.09      0.47      0.00
  15                 598.42    129.93     42.43      0.00
  20                   0.00    160.11     13.48      0.00
  35                1553.90    148.69     59.01      2.53
  40                   0.00    147.99      6.97     14.70
  50                   0.00    140.24     10.29      0.32
  60                   0.00    209.13     90.62      0.00
  601                  0.00    303.25    131.40      0.00
  61                   0.00    303.25    131.40      0.00
  101                265.93    148.09     45.97      0.00
  103                186.48    148.07     45.52      0.00
  105                189.52    149.39     52.38      0.00
  107                 76.50    149.39     55.20      0.00
  109                323.96    148.07     55.36      0.00
  111                198.72    148.81     60.15      0.00
  113                 28.01    148.89     63.65      0.00
  115                 72.94    149.56     58.74      0.00
  117                164.79    152.56     60.21      0.00
  119                246.58    159.98     68.45      0.00
  120                  0.00    157.58     68.28      0.00
  121                 58.28    163.33     71.64      0.00
  123                  0.00    167.74     67.92      0.00
  125                 63.84    162.71     65.74      0.00
  127                 24.72    160.91     45.46      0.00
  129                  0.00    160.90     47.62      0.00
  131                 59.85    160.88     67.11      0.00
  139                  8.25    155.53     53.96      0.00
  141                 13.79    151.72     64.01      0.00
  143                  8.68    141.57     63.29      0.00
  145                 38.68    152.86     65.80      0.00
  147                 11.97    153.74     58.60      0.00
  149                 37.90    154.12     59.85      0.00
  151                202.27    157.83     53.87      0.00
  153                 61.84    157.92     39.74      0.00
  157                 72.51    157.65     62.63      0.00
  159                 57.85    154.43     64.32      0.00
  161                 22.12    152.25     64.24      0.00
  163                 13.19    151.81     63.61      0.00
  164                  0.00    151.81     63.61    210.00
  166                  3.64    151.81     66.65      0.00
  167                 20.38    150.03     67.17      0.00
  169                  0.00    150.03     67.18      0.00
  171                 55.08    149.01     66.30      0.00
  173                  0.00    148.99     66.29      0.00
  177                 81.44    148.68     60.95     14.70
  179                  0.00    148.66     60.95     14.70
  181                  0.00    148.70     60.96      2.47
  183                  0.00    148.66     59.65     18.59
  184                  0.00    147.45     56.96     30.98
  185                 35.91    147.99     57.19     27.72
  187                  0.00    148.60     58.97     34.79
  189                151.09    148.93     62.80      0.00
  191                114.66    148.80     53.64      0.00
  193                 99.83    148.90     56.72      1.26
  195                  0.00    148.97     57.83      0.00
  197                 23.86    148.80     54.51      0.00
  199                167.05    144.10     63.31      0.00
  201                 62.45    143.44     62.11      0.56
  203               3980.98    143.31     61.23      0.76
  204                  0.00    148.39     55.20     34.91
  205                 91.50    144.02     53.30    142.99
  206                  0.00    142.65     61.38    177.28
  207                 97.15    143.16     58.13    175.02
  208                  0.00    142.08     54.63    175.76
  209                  1.22    141.08     62.00    158.43
  211                 12.14    140.74     57.95    150.46
  213                 19.52    140.65     57.91    136.97
  215                129.07    140.44     57.82     82.19
  217                 33.91    140.42     58.24      4.90
  219                 57.85    140.41     59.10     70.35
  225                 31.92    140.41     57.37     70.03
  229                 89.85    140.23     56.21    117.11
  231                 23.07    140.23     58.60     59.51
  237                 21.85    140.25     54.71    113.59
  239                 62.45    140.17     55.10     33.06
  241                  0.00    140.17     55.10     59.13
  243                  6.08    140.17     54.67      0.00
  247                 98.53    140.16     52.93      0.32
  249                  0.00    140.16     52.93     27.05
  251                 33.82    140.15     47.73      0.32
  253                 76.33    140.09     45.10     15.02
  255                 56.55    140.15     49.03      0.32
  257                  0.00    154.50     59.58      0.00
  259                  0.00    154.07     55.92      0.00
  261                  0.00    152.51     66.08      0.00
  263                  0.00    152.35     66.01      0.00
  265                  0.00    150.60     65.25      0.00
  267                  0.00    148.96     55.45     26.83
  269                  0.00    149.36     64.72      0.00
  271                  0.00    148.78     61.87      0.00
  273                  0.00    144.03     58.94      0.00
  275                  0.00    143.42     57.81    210.00
  River           -13081.06    220.00      0.00      0.00  Reservoir
  Lake                 0.00    167.00      0.00      0.00  Reservoir
  1                  442.54    147.99      6.97     14.70  Tank
  2                 -107.52    140.24     10.29      0.32  Tank
  3                 2345.40    160.11     13.48      0.00  Tank
   
   
  Link Results at 24:00:00 hrs:
  ----------------------------------------------
                       Flow  Velocity  Headloss
  Link                  gpm       fps   /1000ft
  ----------------------------------------------
  20               -2345.40      0.10      0.00
  40                -442.54      0.02      0.00
  50                 107.52      0.00      0.00
  60               13081.06      9.28      8.83
  101                  0.00      0.00      0.00
  103                155.62      0.25      0.02
  105               -421.55      1.20      0.51
  107                 21.20      0.06      0.00
  109                -30.86      0.05      0.00
  111               -354.82      1.01      0.37
  112                475.90      1.35      0.64
  113               -115.54      0.33      0.05
  114                114.96      0.73      0.33
  115                -55.30      0.35      0.09
  116                -28.59      0.08      0.00
  117                632.26      1.79      1.08
  119               -719.10      2.04      1.38
  120               1152.42      3.27      3.30
  121               1031.56      2.93      2.68
  122                363.73      2.32      2.81
  123               9652.10      4.38      1.67
  125              13081.06      5.94      2.94
  129               3006.95      2.13      0.67
  131               2729.09      1.94      0.56
  133              -2345.40      2.40      1.02
  135                358.97      0.25      0.01
  137                 59.85      0.10      0.00
  145                299.12      1.91      1.95
  147                290.88      1.86      1.86
  149               -607.10      3.87      7.25
  151               -598.42      3.82      7.06
  153                330.01      0.94      0.33
  155                368.70      1.05      0.40
  159               -380.67      1.08      0.42
  161               -418.56      2.67      3.64
  163               -152.18      0.43      0.08
  169                214.02      1.37      1.05
  171                468.66      1.33      0.62
  173               7784.44      3.53      1.12
  175               7711.93      3.50      1.10
  177               7654.09      3.47      1.09
  179               7379.48      3.35      1.02
  180                  3.64      0.01      0.00
  181                  3.64      0.01      0.00
  183               7150.38      3.25      0.96
  185                -20.38      0.13      0.01
  186                315.52      2.01      2.16
  187               6510.80      2.96      0.81
  189               4525.00      2.05      0.41
  191              -1930.72      1.37      0.29
  193              -1553.90      1.10      0.20
  195                511.37      1.45      0.73
  197                429.94      1.22      0.53
  199                -12.60      0.04      0.00
  201               -442.54      1.26      0.56
  202                520.76      3.32      5.46
  203                241.15      1.54      1.31
  204                520.76      1.48      0.76
  205                315.52      0.90      0.30
  207                253.75      0.72      0.20
  209                165.51      1.06      0.65
  211                619.20      1.76      1.04
  213                150.01      0.43      0.08
  215                 85.70      0.24      0.03
  217               -250.63      0.71      0.20
  219               -252.48      0.72      0.20
  221                252.48      1.61      1.43
  223                 14.04      0.04      0.00
  225                 37.89      0.11      0.01
  229               4525.00      3.21      1.22
  231               4180.42      2.96      1.05
  233               3980.98      2.82      1.12
  235                177.53      0.50      0.10
  237                503.49      1.43      0.71
  238                646.63      1.83      1.13
  239                240.29      0.68      0.18
  240                646.63      1.83      1.13
  241                646.63      1.83      1.13
  243                645.41      1.03      0.28
  245                356.90      0.57      0.09
  247                252.74      0.40      0.05
  249                123.68      0.20      0.01
  251                 57.85      0.12      0.01
  257                 31.92      0.09      0.00
  261                 84.65      0.54      0.19
  263                 23.07      0.07      0.00
  269                276.37      0.78      0.23
  271                 28.28      0.18      0.02
  273                226.24      0.64      0.16
  275                 65.13      0.18      0.02
  277                  6.08      0.02      0.00
  281                 59.05      0.24      0.03
  283                 98.65      0.28      0.03
  285                -62.95      0.18      0.02
  287                 23.48      0.10      0.01
  289                107.52      0.44      0.10
  291                 76.33      0.31      0.05
  293                 -1.88      0.01      0.00
  295                 35.70      0.10      0.01
  297                484.59      3.09      4.77
  299                232.83      1.49      1.23
  301                232.83      1.49      1.23
  303                251.76      1.61      1.42
  305                147.67      0.42      0.07
  307                399.43      1.13      0.46
  309                212.27      1.35      1.04
  311               -126.57      0.36      0.06
  313                484.65      1.37      0.66
  315              -2065.27      1.46      0.33
  317                103.30      0.66      0.27
  319                 74.23      0.21      0.02
  321               7362.66      3.34      1.01
  323                136.98      0.39      0.06
  325                134.55      0.86      0.44
  329              13081.06      5.94      2.98
  330                  0.00      0.00      0.00
  333                 -0.00      0.00      0.00
  10                   0.00      0.00      0.00  Pump
  335              13081.07      0.00    -94.12  Pump
   
  Analysis ended Wed May 06 17:43:59 2020
