  Page 1                                    Wed May 06 17:45:20 2020

  ******************************************************************
  *                           E P A N E T                          *
  *                   Hydraulic and Water Quality                  *
  *                   Analysis for Pipe Networks                   *
  *                         Version 2.00.12                        *
  ******************************************************************
  
  Analysis begun Wed May 06 17:45:20 2020

   
  Hydraulic Status:
  -----------------------------------------------------------------------
     0:00:00: Balanced after 6 trials
     0:00:00: Reservoir River is emptying
     0:00:00: Reservoir Lake is closed
     0:00:00: Tank 1 is filling at 13.10 ft
     0:00:00: Tank 2 is emptying at 23.50 ft
     0:00:00: Tank 3 is filling at 29.00 ft
   
     0:05:00: Balanced after 2 trials
   
     0:10:00: Balanced after 2 trials
   
     0:15:00: Balanced after 2 trials
   
     0:20:00: Balanced after 2 trials
   
     0:25:00: Balanced after 2 trials
   
     0:30:00: Balanced after 2 trials
   
     0:35:00: Balanced after 2 trials
   
     0:40:00: Balanced after 2 trials
   
     0:45:00: Balanced after 2 trials
   
     0:50:00: Balanced after 2 trials
   
     0:55:00: Balanced after 2 trials
   
     1:00:00: Pump 10 changed by timer control
     1:00:00: Balanced after 7 trials
     1:00:00: Reservoir Lake is emptying
     1:00:00: Pump 10 changed from closed to open
   
     1:05:00: Balanced after 2 trials
   
     1:10:00: Balanced after 2 trials
   
     1:15:00: Balanced after 2 trials
   
     1:20:00: Balanced after 2 trials
   
     1:25:00: Balanced after 2 trials
   
     1:30:00: Balanced after 2 trials
   
     1:35:00: Balanced after 2 trials
   
     1:40:00: Balanced after 2 trials
   
     1:45:00: Balanced after 2 trials
   
     1:50:00: Balanced after 2 trials
   
     1:55:00: Balanced after 2 trials
   
     2:00:00: Balanced after 4 trials
     2:00:00: Tank 2 is filling at 19.94 ft
   
     2:05:00: Balanced after 1 trials
   
     2:10:00: Balanced after 1 trials
   
     2:15:00: Balanced after 1 trials
   
     2:20:00: Balanced after 1 trials
   
     2:25:00: Balanced after 1 trials
   
     2:30:00: Balanced after 1 trials
   
     2:35:00: Balanced after 1 trials
   
     2:40:00: Balanced after 1 trials
   
     2:45:00: Balanced after 1 trials
   
     2:50:00: Balanced after 1 trials
   
     2:55:00: Balanced after 1 trials
   
     3:00:00: Balanced after 3 trials
   
     3:05:00: Balanced after 1 trials
   
     3:10:00: Balanced after 1 trials
   
     3:15:00: Balanced after 1 trials
   
     3:20:00: Balanced after 1 trials
   
     3:25:00: Balanced after 1 trials
   
     3:30:00: Balanced after 1 trials
   
     3:35:00: Balanced after 1 trials
   
     3:40:00: Balanced after 1 trials
   
     3:45:00: Balanced after 1 trials
   
     3:50:00: Balanced after 1 trials
   
     3:55:00: Balanced after 1 trials
   
     4:00:00: Balanced after 3 trials
   
     4:05:00: Balanced after 1 trials
   
     4:10:00: Balanced after 1 trials
   
     4:15:00: Balanced after 1 trials
   
     4:20:00: Balanced after 1 trials
   
     4:25:00: Balanced after 1 trials
   
     4:30:00: Balanced after 1 trials
   
     4:35:00: Balanced after 1 trials
   
     4:37:21: Pump 335 changed by Tank 1 control
     4:37:21: Pipe 330 changed by Tank 1 control
     4:37:21: Balanced after 4 trials
     4:37:21: Pipe 330 changed from closed to open
     4:37:21: Pump 335 changed from open to closed
   
     4:40:00: Balanced after 1 trials
   
     4:45:00: Balanced after 2 trials
   
     4:50:00: Balanced after 2 trials
   
     4:55:00: Balanced after 2 trials
   
     5:00:00: Balanced after 3 trials
     5:00:00: Tank 3 is emptying at 34.63 ft
   
     5:05:00: Balanced after 2 trials
   
     5:10:00: Balanced after 2 trials
   
     5:15:00: Balanced after 2 trials
   
     5:20:00: Balanced after 2 trials
   
     5:25:00: Balanced after 2 trials
   
     5:30:00: Balanced after 2 trials
   
     5:35:00: Balanced after 2 trials
   
     5:40:00: Balanced after 2 trials
   
     5:45:00: Balanced after 2 trials
   
     5:50:00: Balanced after 2 trials
   
     5:55:00: Balanced after 2 trials
   
     6:00:00: Balanced after 3 trials
     6:00:00: Tank 3 is filling at 34.40 ft
   
     6:05:00: Balanced after 1 trials
   
     6:10:00: Balanced after 1 trials
   
     6:15:00: Balanced after 1 trials
   
     6:20:00: Balanced after 1 trials
   
     6:25:00: Balanced after 1 trials
   
     6:30:00: Balanced after 1 trials
   
     6:35:00: Balanced after 1 trials
   
     6:40:00: Balanced after 1 trials
   
     6:45:00: Balanced after 1 trials
   
     6:50:00: Balanced after 1 trials
   
     6:55:00: Balanced after 1 trials
   
     7:00:00: Balanced after 3 trials
   
     7:05:00: Balanced after 1 trials
   
     7:10:00: Balanced after 1 trials
   
     7:15:00: Balanced after 1 trials
   
     7:20:00: Balanced after 1 trials
   
     7:25:00: Balanced after 1 trials
   
     7:30:00: Balanced after 1 trials
   
     7:35:00: Balanced after 1 trials
   
     7:40:00: Balanced after 1 trials
   
     7:45:00: Balanced after 1 trials
   
     7:50:00: Balanced after 1 trials
   
     7:55:00: Balanced after 1 trials
   
     8:00:00: Balanced after 2 trials
   
     8:05:00: Balanced after 1 trials
   
     8:10:00: Balanced after 1 trials
   
     8:15:00: Balanced after 1 trials
   
     8:20:00: Balanced after 1 trials
   
     8:25:00: Balanced after 1 trials
   
     8:30:00: Balanced after 1 trials
   
     8:35:00: Balanced after 1 trials
   
     8:40:00: Balanced after 1 trials
   
     8:45:00: Balanced after 1 trials
   
     8:50:00: Balanced after 1 trials
   
     8:55:00: Balanced after 1 trials
   
     9:00:00: Balanced after 3 trials
     9:00:00: Tank 1 is emptying at 22.09 ft
     9:00:00: Tank 3 is emptying at 35.41 ft
   
     9:05:00: Balanced after 1 trials
     9:05:00: Tank 2 is closed at 27.05 ft
   
     9:10:00: Balanced after 1 trials
     9:10:00: Tank 2 is emptying at 27.05 ft
   
     9:15:00: Balanced after 1 trials
   
     9:20:00: Balanced after 1 trials
   
     9:25:00: Balanced after 1 trials
   
     9:30:00: Balanced after 1 trials
   
     9:35:00: Balanced after 1 trials
   
     9:40:00: Balanced after 1 trials
   
     9:45:00: Balanced after 1 trials
   
     9:50:00: Balanced after 1 trials
   
     9:55:00: Balanced after 1 trials
   
    10:00:00: Balanced after 4 trials
    10:00:00: Tank 1 is filling at 21.64 ft
    10:00:00: Tank 2 is filling at 27.01 ft
   
    10:05:00: Balanced after 2 trials
   
    10:10:00: Balanced after 2 trials
   
    10:15:00: Balanced after 2 trials
   
    10:20:00: Balanced after 2 trials
   
    10:25:00: Balanced after 2 trials
   
    10:30:00: Balanced after 2 trials
   
    10:35:00: Balanced after 2 trials
   
    10:40:00: Balanced after 2 trials
   
    10:45:00: Balanced after 2 trials
   
    10:50:00: Balanced after 2 trials
   
    10:55:00: Balanced after 2 trials
   
    11:00:00: Balanced after 3 trials
   
    11:05:00: Balanced after 2 trials
   
    11:10:00: Balanced after 2 trials
   
    11:15:00: Balanced after 2 trials
   
    11:20:00: Balanced after 2 trials
   
    11:25:00: Balanced after 2 trials
   
    11:30:00: Balanced after 2 trials
   
    11:35:00: Balanced after 2 trials
   
    11:40:00: Balanced after 2 trials
   
    11:45:00: Balanced after 2 trials
   
    11:50:00: Balanced after 2 trials
   
    11:55:00: Balanced after 2 trials
   
    12:00:00: Balanced after 3 trials
   
    12:05:00: Balanced after 2 trials
   
    12:10:00: Balanced after 2 trials
   
    12:15:00: Balanced after 2 trials
   
    12:20:00: Balanced after 2 trials
   
    12:25:00: Balanced after 2 trials
   
    12:30:00: Balanced after 2 trials
   
    12:35:00: Balanced after 2 trials
   
    12:40:00: Balanced after 2 trials
   
    12:45:00: Balanced after 2 trials
   
    12:50:00: Balanced after 2 trials
   
    12:55:00: Balanced after 2 trials
   
    13:00:00: Balanced after 3 trials
    13:00:00: Tank 1 is emptying at 22.56 ft
    13:00:00: Tank 2 is emptying at 27.70 ft
   
    13:05:00: Balanced after 1 trials
   
    13:10:00: Balanced after 1 trials
   
    13:15:00: Balanced after 1 trials
   
    13:20:00: Balanced after 1 trials
   
    13:25:00: Balanced after 1 trials
   
    13:30:00: Balanced after 1 trials
   
    13:35:00: Balanced after 1 trials
   
    13:40:00: Balanced after 1 trials
   
    13:45:00: Balanced after 1 trials
   
    13:50:00: Balanced after 1 trials
   
    13:55:00: Balanced after 1 trials
   
    14:00:00: Balanced after 3 trials
   
    14:05:00: Balanced after 1 trials
   
    14:10:00: Balanced after 1 trials
   
    14:15:00: Balanced after 1 trials
   
    14:20:00: Balanced after 1 trials
   
    14:25:00: Balanced after 1 trials
   
    14:30:00: Balanced after 1 trials
   
    14:35:00: Balanced after 1 trials
   
    14:40:00: Balanced after 1 trials
   
    14:45:00: Balanced after 1 trials
   
    14:50:00: Balanced after 1 trials
   
    14:55:00: Balanced after 1 trials
   
    15:00:00: Pump 10 changed by timer control
    15:00:00: Balanced after 5 trials
    15:00:00: Reservoir Lake is closed
    15:00:00: Tank 2 is filling at 26.84 ft
    15:00:00: Pump 10 changed from open to closed
   
    15:05:00: Balanced after 2 trials
   
    15:10:00: Balanced after 2 trials
   
    15:15:00: Balanced after 2 trials
   
    15:20:00: Balanced after 2 trials
   
    15:25:00: Balanced after 2 trials
   
    15:30:00: Balanced after 2 trials
   
    15:35:00: Balanced after 2 trials
   
    15:40:00: Balanced after 2 trials
   
    15:45:00: Balanced after 2 trials
   
    15:50:00: Balanced after 2 trials
   
    15:55:00: Balanced after 2 trials
   
    16:00:00: Balanced after 3 trials
   
    16:05:00: Balanced after 2 trials
   
    16:10:00: Balanced after 2 trials
   
    16:15:00: Balanced after 2 trials
   
    16:20:00: Balanced after 2 trials
    16:20:00: Tank 2 is emptying at 27.13 ft
   
    16:25:00: Balanced after 1 trials
   
    16:30:00: Balanced after 1 trials
   
    16:35:00: Balanced after 1 trials
   
    16:40:00: Balanced after 1 trials
   
    16:45:00: Balanced after 1 trials
   
    16:50:00: Balanced after 1 trials
   
    16:55:00: Balanced after 1 trials
   
    17:00:00: Balanced after 3 trials
    17:00:00: Tank 2 is filling at 27.08 ft
   
    17:05:00: Balanced after 2 trials
   
    17:10:00: Balanced after 2 trials
   
    17:15:00: Balanced after 2 trials
   
    17:20:00: Balanced after 2 trials
   
    17:25:00: Balanced after 2 trials
   
    17:30:00: Balanced after 2 trials
   
    17:35:00: Balanced after 2 trials
   
    17:40:00: Balanced after 2 trials
   
    17:45:00: Balanced after 2 trials
   
    17:50:00: Balanced after 1 trials
   
    17:55:00: Balanced after 1 trials
    17:55:00: Tank 2 is emptying at 27.18 ft
   
    18:00:00: Balanced after 3 trials
   
    18:05:00: Balanced after 1 trials
   
    18:10:00: Balanced after 1 trials
   
    18:15:00: Balanced after 1 trials
   
    18:20:00: Balanced after 1 trials
   
    18:25:00: Balanced after 1 trials
   
    18:30:00: Balanced after 1 trials
   
    18:35:00: Balanced after 1 trials
   
    18:40:00: Balanced after 1 trials
   
    18:45:00: Balanced after 1 trials
   
    18:50:00: Balanced after 1 trials
   
    18:55:00: Balanced after 1 trials
   
    19:00:00: Balanced after 3 trials
    19:00:00: Tank 2 is filling at 26.43 ft
   
    19:05:00: Balanced after 2 trials
   
    19:10:00: Balanced after 2 trials
   
    19:15:00: Balanced after 2 trials
   
    19:20:00: Balanced after 1 trials
   
    19:25:00: Balanced after 1 trials
   
    19:30:00: Balanced after 1 trials
   
    19:35:00: Balanced after 1 trials
   
    19:40:00: Balanced after 1 trials
   
    19:45:00: Balanced after 1 trials
   
    19:50:00: Balanced after 1 trials
   
    19:55:00: Balanced after 1 trials
   
    20:00:00: Balanced after 3 trials
    20:00:00: Tank 2 is emptying at 26.65 ft
   
    20:05:00: Balanced after 1 trials
   
    20:10:00: Balanced after 1 trials
   
    20:15:00: Balanced after 1 trials
   
    20:20:00: Balanced after 1 trials
   
    20:25:00: Balanced after 1 trials
   
    20:30:00: Balanced after 1 trials
   
    20:35:00: Balanced after 1 trials
   
    20:40:00: Balanced after 1 trials
   
    20:42:37: Pump 335 changed by Tank 1 control
    20:42:37: Pipe 330 changed by Tank 1 control
    20:42:37: Balanced after 5 trials
    20:42:37: Tank 1 is filling at 17.10 ft
    20:42:37: Tank 3 is filling at 29.89 ft
    20:42:37: Pipe 330 changed from open to closed
    20:42:37: Pump 335 changed from closed to open
   
    20:45:00: Balanced after 1 trials
   
    20:50:00: Balanced after 2 trials
   
    20:55:00: Balanced after 2 trials
   
    21:00:00: Balanced after 3 trials
    21:00:00: Tank 1 is emptying at 17.18 ft
   
    21:05:00: Balanced after 2 trials
   
    21:10:00: Balanced after 2 trials
   
    21:15:00: Balanced after 2 trials
   
    21:20:00: Balanced after 2 trials
    21:20:00: Tank 1 is filling at 17.17 ft
   
    21:25:00: Balanced after 2 trials
   
    21:30:00: Balanced after 2 trials
   
    21:35:00: Balanced after 2 trials
   
    21:40:00: Balanced after 2 trials
   
    21:45:00: Balanced after 2 trials
   
    21:50:00: Balanced after 2 trials
   
    21:55:00: Balanced after 2 trials
   
    22:00:00: Balanced after 3 trials
   
    22:05:00: Balanced after 2 trials
   
    22:10:00: Balanced after 1 trials
   
    22:15:00: Balanced after 1 trials
   
    22:20:00: Balanced after 1 trials
   
    22:25:00: Balanced after 1 trials
   
    22:30:00: Balanced after 1 trials
   
    22:35:00: Balanced after 1 trials
   
    22:40:00: Balanced after 1 trials
   
    22:45:00: Balanced after 1 trials
   
    22:50:00: Balanced after 1 trials
   
    22:55:00: Balanced after 1 trials
   
    23:00:00: Balanced after 3 trials
    23:00:00: Tank 1 is emptying at 17.50 ft
   
    23:05:00: Balanced after 2 trials
   
    23:10:00: Balanced after 2 trials
   
    23:15:00: Balanced after 2 trials
   
    23:20:00: Balanced after 2 trials
   
    23:25:00: Balanced after 2 trials
   
    23:30:00: Balanced after 2 trials
   
    23:35:00: Balanced after 2 trials
   
    23:40:00: Balanced after 2 trials
   
    23:45:00: Balanced after 2 trials
   
    23:50:00: Balanced after 2 trials
   
    23:55:00: Balanced after 2 trials
   
    24:00:00: Balanced after 4 trials
   
   
  Node Results at 0:00:00 hrs:
  --------------------------------------------------------
                     Demand      Head  Pressure  Chemical
  Node                  gpm        ft       psi      mg/L
  --------------------------------------------------------
  10                   0.00    144.59     -1.04      0.00
  15                 609.75    126.27     40.85      0.00
  20                   0.00    158.00     12.57      0.00
  35                1818.50    145.10     57.45      0.00
  40                   0.00    145.00      5.68      0.00
  50                   0.00    140.00     10.18      0.00
  60                   0.00    208.99     90.56      0.00
  601                  0.00    302.34    131.01      0.00
  61                   0.00    302.34    131.01      0.00
  101                269.73    144.59     44.45      0.00
  103                189.14    144.56     44.01      0.00
  105                192.23    145.96     50.89      0.00
  107                 77.59    145.95     53.71      0.00
  109                328.59    144.56     53.84      0.00
  111                201.55    145.30     58.63      0.00
  113                 28.41    145.37     62.12      0.00
  115                 73.98    146.10     57.24      0.00
  117                167.15    149.30     58.80      0.00
  119                250.10    157.14     67.22      0.00
  120                  0.00    154.60     66.99      0.00
  121                 59.11    160.69     70.49      0.00
  123                  0.00    165.15     66.79      0.00
  125                 64.75    160.16     64.63      0.00
  127                 25.08    158.65     44.48      0.00
  129                  0.00    158.63     46.64      0.00
  131                 60.71    158.61     66.13      0.00
  139                  8.36    152.89     52.82      0.00
  141                 13.99    148.83     62.75      0.00
  143                  8.80    138.32     61.88      0.00
  145                 39.23    149.98     64.55      0.00
  147                 12.14    150.86     57.35      0.00
  149                 38.44    151.24     58.60      0.00
  151                205.16    154.99     52.64      0.00
  153                 62.72    155.08     38.51      0.00
  157                 73.54    154.64     61.33      0.00
  159                 58.67    151.21     62.92      0.00
  161                 22.44    148.88     62.78      0.00
  163                 13.38    148.41     62.14      0.00
  164                  0.00    148.41     62.14      0.00
  166                  3.69    148.41     65.17      0.00
  167                 20.68    146.51     65.65      0.00
  169                  0.00    146.51     65.65      0.00
  171                 55.86    145.41     64.74      0.00
  173                  0.00    145.38     64.73      0.00
  177                 82.60    145.10     59.41      0.00
  179                  0.00    145.10     59.40      0.00
  181                  0.00    145.10     59.41      0.00
  183                  0.00    145.10     58.10      0.00
  184                  0.00    143.74     55.35      0.00
  185                 36.42    144.36     55.62      0.00
  187                  0.00    145.04     57.43      0.00
  189                153.25    145.39     61.26      0.00
  191                116.30    145.27     52.11      0.00
  193                101.26    145.38     55.19      0.00
  195                  0.00    145.45     56.31      0.00
  197                 24.20    145.27     52.98      0.00
  199                169.43    139.93     61.50      0.00
  201                 63.35    139.16     60.26      0.00
  203               4593.90    138.99     59.36      0.00
  204                  0.00    144.80     53.64      0.00
  205                 92.81    139.90     51.52      0.00
  206                  0.00    139.03     59.81      0.00
  207                 98.53    139.18     56.41      0.00
  208                  0.00    138.85     53.23      0.00
  209                  1.24    138.55     60.90      0.00
  211                 12.31    138.45     56.96      0.00
  213                 19.79    138.38     56.93      0.00
  215                130.91    138.16     56.83      0.00
  217                 34.39    138.14     57.26      0.00
  219                 58.67    138.13     58.12      0.00
  225                 32.38    138.13     56.39      0.00
  229                 91.14    138.30     55.38      0.00
  231                 23.40    138.30     57.76      0.00
  237                 22.17    138.44     53.92      0.00
  239                 63.35    138.46     54.36      0.00
  241                  0.00    138.46     54.36      0.00
  243                  6.16    138.46     53.93      0.00
  247                 99.94    138.47     52.20      0.00
  249                  0.00    138.47     52.20      0.00
  251                 34.31    138.50     47.01      0.00
  253                 77.42    138.77     44.53      0.00
  255                 57.35    138.83     48.46      0.00
  257                  0.00    151.34     58.21      0.00
  259                  0.00    150.89     54.55      0.00
  261                  0.00    149.25     64.67      0.00
  263                  0.00    149.07     64.59      0.00
  265                  0.00    147.11     63.74      0.00
  267                  0.00    145.43     53.92      0.00
  269                  0.00    145.82     63.18      0.00
  271                  0.00    145.19     60.31      0.00
  273                  0.00    139.90     57.15      0.00
  275                  0.00    139.18     55.97      0.00
  River           -13168.54    220.00      0.00      0.00  Reservoir
  Lake                 0.00    167.00      0.00      0.00  Reservoir
  1                  156.19    145.00      5.68      0.00  Tank
  2                 -424.81    140.00     10.18      0.00  Tank
  3                 2086.69    158.00     12.57      0.00  Tank
   
   
  Link Results at 0:00:00 hrs:
  ----------------------------------------------
                       Flow  Velocity  Headloss
  Link                  gpm       fps   /1000ft
  ----------------------------------------------
  20               -2086.69      0.09      0.00
  40                -156.19      0.01      0.00
  50                 424.81      0.02      0.00
  60               13168.54      9.34      8.94
  101                  0.00      0.00      0.00
  103                163.72      0.26      0.02
  105               -433.45      1.23      0.54
  107                 25.13      0.07      0.00
  109                -25.43      0.04      0.00
  111               -354.01      1.00      0.37
  112                495.97      1.41      0.69
  113               -109.93      0.31      0.04
  114                120.99      0.77      0.37
  115                -52.46      0.33      0.08
  116                -17.36      0.05      0.00
  117                650.80      1.85      1.14
  119               -743.39      2.11      1.46
  120               1186.25      3.37      3.48
  121               1062.32      3.01      2.83
  122                375.09      2.39      2.97
  123               9966.48      4.52      1.78
  125              13168.54      5.98      2.98
  129               2767.85      1.96      0.57
  131               2482.41      1.76      0.47
  133              -2086.69      2.13      0.82
  135                370.64      0.26      0.01
  137                 60.71      0.10      0.00
  145                309.94      1.98      2.09
  147                301.57      1.92      1.98
  149               -618.55      3.95      7.50
  151               -609.75      3.89      7.31
  153                330.97      0.94      0.33
  155                370.20      1.05      0.40
  159               -382.34      1.08      0.43
  161               -420.78      2.69      3.68
  163               -157.97      0.45      0.08
  169                220.69      1.41      1.11
  171                467.97      1.33      0.62
  173               8062.15      3.66      1.20
  175               7988.61      3.63      1.18
  177               7929.93      3.60      1.16
  179               7648.90      3.47      1.09
  180                  3.69      0.01      0.00
  181                  3.69      0.01      0.00
  183               7416.18      3.37      1.03
  185                -20.68      0.13      0.01
  186                335.40      2.14      2.42
  187               6767.76      3.07      0.87
  189               4804.20      2.18      0.46
  191              -1907.70      1.35      0.29
  193              -1818.50      1.29      0.26
  195                230.45      0.65      0.17
  197                147.85      0.42      0.07
  199                 -8.35      0.02      0.00
  201               -156.19      0.44      0.08
  202                553.95      3.54      6.12
  203                254.97      1.63      1.45
  204                553.95      1.57      0.85
  205                335.40      0.95      0.34
  207                263.32      0.75      0.21
  209                170.52      1.09      0.69
  211                627.74      1.78      1.07
  213                164.88      0.47      0.09
  215                100.58      0.29      0.04
  217               -255.05      0.72      0.20
  219               -258.59      0.73      0.21
  221                258.59      1.65      1.49
  223                 26.13      0.07      0.00
  225                 50.33      0.14      0.01
  229               4804.20      3.41      1.36
  231               4524.47      3.21      1.22
  233               4593.90      3.26      1.46
  235                110.30      0.31      0.04
  237                458.32      1.30      0.60
  238                340.12      0.96      0.34
  239                -19.67      0.06      0.00
  240                340.12      0.96      0.34
  241                340.12      0.96      0.34
  243                338.88      0.54      0.08
  245                309.04      0.49      0.07
  247                256.35      0.41      0.05
  249                125.44      0.20      0.01
  251                 58.67      0.12      0.01
  257                 32.38      0.09      0.00
  261                 32.90      0.21      0.03
  263                 23.40      0.07      0.00
  269                 17.53      0.05      0.00
  271                 81.64      0.52      0.18
  273                -86.28      0.24      0.03
  275                -52.24      0.15      0.01
  277                  6.16      0.02      0.00
  281                -58.41      0.24      0.03
  283                -97.38      0.28      0.03
  285                 22.70      0.06      0.00
  287               -181.04      0.74      0.26
  289                424.81      1.74      1.26
  291                 77.42      0.32      0.05
  293                108.99      0.70      0.30
  295                -74.68      0.21      0.02
  297                499.03      3.19      5.04
  299                239.76      1.53      1.30
  301                239.76      1.53      1.30
  303                259.27      1.65      1.50
  305                151.78      0.43      0.08
  307                411.04      1.17      0.49
  309                215.65      1.38      1.07
  311               -115.07      0.33      0.05
  313                486.50      1.38      0.67
  315              -2048.95      1.45      0.33
  317                113.11      0.72      0.32
  319                 -2.82      0.01      0.00
  321               7631.84      3.46      1.08
  323               -132.78      0.38      0.06
  325                141.24      0.90      0.49
  329              13168.54      5.98      3.02
  330                  0.00      0.00      0.00
  333                 -0.00      0.00      0.00
  10                   0.00      0.00      0.00  Pump
  335              13168.54      0.00    -93.35  Pump
   
   
  Node Results at 0:05:00 hrs:
  --------------------------------------------------------
                     Demand      Head  Pressure  Chemical
  Node                  gpm        ft       psi      mg/L
  --------------------------------------------------------
  10                   0.00    144.61     -1.04      0.00
  15                 609.75    126.31     40.87      0.00
  20                   0.00    158.07     12.59      0.00
  35                1818.50    145.11     57.46      0.00
  40                   0.00    145.02      5.68      0.00
  50                   0.00    139.86     10.12      0.00
  60                   0.00    209.00     90.56      0.00
  601                  0.00    302.36    131.01      0.00
  61                   0.00    302.36    131.01      0.00
  101                269.73    144.61     44.46      0.00
  103                189.14    144.58     44.01      0.00
  105                192.23    145.98     50.90      0.00
  107                 77.59    145.98     53.72      0.00
  109                328.59    144.58     53.85      0.00
  111                201.55    145.32     58.64      0.00
  113                 28.41    145.39     62.13      0.00
  115                 73.98    146.13     57.25      0.00
  117                167.15    149.32     58.81      0.00
  119                250.10    157.17     67.24      0.00
  120                  0.00    154.63     67.00      0.00
  121                 59.11    160.73     70.51      0.00
  123                  0.00    165.19     66.81      0.00
  125                 64.75    160.20     64.65      0.00
  127                 25.08    158.71     44.50      0.00
  129                  0.00    158.69     46.66      0.00
  131                 60.71    158.67     66.15      0.00
  139                  8.36    152.95     52.84      0.00
  141                 13.99    148.88     62.77      0.00
  143                  8.80    138.37     61.91      0.00
  145                 39.23    150.02     64.57      0.00
  147                 12.14    150.91     57.37      0.00
  149                 38.44    151.28     58.62      0.00
  151                205.16    155.03     52.66      0.00
  153                 62.72    155.13     38.53      0.00
  157                 73.54    154.67     61.34      0.00
  159                 58.67    151.24     62.93      0.00
  161                 22.44    148.91     62.79      0.00
  163                 13.38    148.44     62.15      0.00
  164                  0.00    148.44     62.15      0.00
  166                  3.69    148.44     65.18      0.00
  167                 20.68    146.53     65.66      0.00
  169                  0.00    146.53     65.66      0.00
  171                 55.86    145.42     64.74      0.00
  173                  0.00    145.40     64.73      0.00
  177                 82.60    145.12     59.41      0.00
  179                  0.00    145.11     59.41      0.00
  181                  0.00    145.12     59.41      0.00
  183                  0.00    145.11     58.11      0.00
  184                  0.00    143.76     55.36      0.00
  185                 36.42    144.37     55.62      0.00
  187                  0.00    145.06     57.44      0.00
  189                153.25    145.40     61.27      0.00
  191                116.30    145.29     52.12      0.00
  193                101.26    145.40     55.20      0.00
  195                  0.00    145.47     56.32      0.00
  197                 24.20    145.29     52.99      0.00
  199                169.43    139.93     61.50      0.00
  201                 63.35    139.15     60.25      0.00
  203               4593.90    138.98     59.35      0.00
  204                  0.00    144.82     53.65      0.00
  205                 92.81    139.89     51.52      0.00
  206                  0.00    139.01     59.80      0.00
  207                 98.53    139.17     56.40      0.00
  208                  0.00    138.82     53.22      0.00
  209                  1.24    138.50     60.88      0.00
  211                 12.31    138.39     56.93      0.00
  213                 19.79    138.32     56.90      0.00
  215                130.91    138.10     56.81      0.00
  217                 34.39    138.08     57.23      0.00
  219                 58.67    138.07     58.09      0.00
  225                 32.38    138.08     56.36      0.00
  229                 91.14    138.25     55.35      0.00
  231                 23.40    138.24     57.73      0.00
  237                 22.17    138.38     53.90      0.00
  239                 63.35    138.39     54.33      0.00
  241                  0.00    138.39     54.33      0.00
  243                  6.16    138.39     53.90      0.00
  247                 99.94    138.41     52.17      0.00
  249                  0.00    138.41     52.17      0.00
  251                 34.31    138.43     46.98      0.00
  253                 77.42    138.68     44.49      0.00
  255                 57.35    138.74     48.42      0.00
  257                  0.00    151.37     58.22      0.00
  259                  0.00    150.92     54.56      0.00
  261                  0.00    149.27     64.68      0.00
  263                  0.00    149.10     64.61      0.00
  265                  0.00    147.13     63.75      0.00
  267                  0.00    145.45     53.92      0.00
  269                  0.00    145.83     63.19      0.00
  271                  0.00    145.21     60.32      0.00
  273                  0.00    139.89     57.15      0.00
  275                  0.00    139.17     55.97      0.00
  River           -13167.08    220.00      0.00      0.00  Reservoir
  Lake                 0.00    167.00      0.00      0.00  Reservoir
  1                  154.60    145.02      5.68      0.00  Tank
  2                 -413.87    139.86     10.12      0.00  Tank
  3                 2075.88    158.07     12.59      0.00  Tank
   
   
  Link Results at 0:05:00 hrs:
  ----------------------------------------------
                       Flow  Velocity  Headloss
  Link                  gpm       fps   /1000ft
  ----------------------------------------------
  20               -2075.88      0.09      0.00
  40                -154.60      0.01      0.00
  50                 413.87      0.02      0.00
  60               13167.08      9.34      8.94
  101                  0.00      0.00      0.00
  103                164.02      0.26      0.02
  105               -433.75      1.23      0.54
  107                 25.32      0.07      0.00
  109                -25.13      0.04      0.00
  111               -353.71      1.00      0.37
  112                496.65      1.41      0.69
  113               -109.52      0.31      0.04
  114                121.21      0.77      0.37
  115                -52.27      0.33      0.08
  116                -16.72      0.05      0.00
  117                651.29      1.85      1.15
  119               -744.11      2.11      1.47
  120               1187.15      3.37      3.48
  121               1063.14      3.02      2.84
  122                375.40      2.40      2.98
  123               9975.17      4.53      1.78
  125              13167.08      5.98      2.98
  129               2757.40      1.96      0.57
  131               2471.81      1.75      0.46
  133              -2075.88      2.12      0.81
  135                370.85      0.26      0.01
  137                 60.71      0.10      0.00
  145                310.14      1.98      2.09
  147                301.78      1.93      1.99
  149               -618.55      3.95      7.50
  151               -609.75      3.89      7.31
  153                330.76      0.94      0.33
  155                369.99      1.05      0.40
  159               -382.14      1.08      0.43
  161               -420.57      2.68      3.67
  163               -158.12      0.45      0.08
  169                220.84      1.41      1.11
  171                467.62      1.33      0.62
  173               8070.30      3.66      1.20
  175               7996.75      3.63      1.18
  177               7938.08      3.60      1.17
  179               7656.90      3.48      1.09
  180                  3.69      0.01      0.00
  181                  3.69      0.01      0.00
  183               7424.11      3.37      1.03
  185                -20.68      0.13      0.01
  186                336.23      2.15      2.43
  187               6775.49      3.08      0.87
  189               4813.85      2.18      0.46
  191              -1905.78      1.35      0.29
  193              -1818.50      1.29      0.26
  195                228.71      0.65      0.17
  197                146.11      0.41      0.07
  199                 -8.50      0.02      0.00
  201               -154.60      0.44      0.08
  202                555.23      3.54      6.14
  203                255.43      1.63      1.46
  204                555.23      1.58      0.85
  205                336.23      0.95      0.34
  207                263.93      0.75      0.22
  209                170.68      1.09      0.69
  211                627.94      1.78      1.07
  213                165.55      0.47      0.09
  215                101.34      0.29      0.04
  217               -255.15      0.72      0.20
  219               -258.74      0.73      0.21
  221                258.74      1.65      1.49
  223                 26.70      0.08      0.00
  225                 50.90      0.14      0.01
  229               4813.85      3.41      1.37
  231               4533.02      3.21      1.22
  233               4593.90      3.26      1.46
  235                111.40      0.32      0.04
  237                460.35      1.31      0.60
  238                351.06      1.00      0.36
  239                -10.76      0.03      0.00
  240                351.06      1.00      0.36
  241                351.06      1.00      0.36
  243                349.82      0.56      0.09
  245                309.57      0.49      0.07
  247                256.35      0.41      0.05
  249                125.44      0.20      0.01
  251                 58.67      0.12      0.01
  257                 32.38      0.09      0.00
  261                 33.42      0.21      0.03
  263                 23.40      0.07      0.00
  269                 27.94      0.08      0.00
  271                 81.11      0.52      0.17
  273                -75.34      0.21      0.02
  275                -48.15      0.14      0.01
  277                  6.16      0.02      0.00
  281                -54.31      0.22      0.03
  283                -90.54      0.26      0.03
  285                 19.87      0.06      0.00
  287               -174.12      0.71      0.24
  289                413.87      1.69      1.20
  291                 77.42      0.32      0.05
  293                104.98      0.67      0.28
  295                -70.67      0.20      0.02
  297                499.41      3.19      5.05
  299                239.95      1.53      1.30
  301                239.95      1.53      1.30
  303                259.47      1.66      1.50
  305                151.88      0.43      0.08
  307                411.35      1.17      0.49
  309                215.72      1.38      1.07
  311               -114.38      0.32      0.05
  313                486.51      1.38      0.67
  315              -2047.21      1.45      0.33
  317                113.47      0.72      0.32
  319                 -2.07      0.01      0.00
  321               7639.83      3.47      1.09
  323               -124.23      0.35      0.05
  325                141.43      0.90      0.49
  329              13167.08      5.98      3.01
  330                  0.00      0.00      0.00
  333                 -0.00      0.00      0.00
  10                   0.00      0.00      0.00  Pump
  335              13167.08      0.00    -93.36  Pump
   
   
  Node Results at 0:10:00 hrs:
  --------------------------------------------------------
                     Demand      Head  Pressure  Chemical
  Node                  gpm        ft       psi      mg/L
  --------------------------------------------------------
  10                   0.00    144.63     -1.03      0.00
  15                 609.75    126.36     40.89      0.00
  20                   0.00    158.13     12.62      0.00
  35                1818.50    145.13     57.47      0.00
  40                   0.00    145.04      5.69      0.00
  50                   0.00    139.71     10.06      0.00
  60                   0.00    209.00     90.56      0.00
  601                  0.00    302.37    131.02      0.00
  61                   0.00    302.37    131.02      0.00
  101                269.73    144.63     44.47      0.00
  103                189.14    144.60     44.02      0.00
  105                192.23    146.00     50.91      0.00
  107                 77.59    146.00     53.73      0.00
  109                328.59    144.60     53.86      0.00
  111                201.55    145.34     58.64      0.00
  113                 28.41    145.41     62.14      0.00
  115                 73.98    146.15     57.26      0.00
  117                167.15    149.35     58.82      0.00
  119                250.10    157.21     67.25      0.00
  120                  0.00    154.67     67.02      0.00
  121                 59.11    160.78     70.53      0.00
  123                  0.00    165.24     66.83      0.00
  125                 64.75    160.25     64.67      0.00
  127                 25.08    158.76     44.53      0.00
  129                  0.00    158.75     46.69      0.00
  131                 60.71    158.73     66.18      0.00
  139                  8.36    153.00     52.86      0.00
  141                 13.99    148.92     62.79      0.00
  143                  8.80    138.42     61.93      0.00
  145                 39.23    150.07     64.59      0.00
  147                 12.14    150.95     57.39      0.00
  149                 38.44    151.33     58.64      0.00
  151                205.16    155.07     52.68      0.00
  153                 62.72    155.17     38.55      0.00
  157                 73.54    154.71     61.36      0.00
  159                 58.67    151.26     62.94      0.00
  161                 22.44    148.93     62.80      0.00
  163                 13.38    148.46     62.16      0.00
  164                  0.00    148.46     62.16      0.00
  166                  3.69    148.46     65.19      0.00
  167                 20.68    146.54     65.66      0.00
  169                  0.00    146.54     65.66      0.00
  171                 55.86    145.44     64.75      0.00
  173                  0.00    145.42     64.74      0.00
  177                 82.60    145.13     59.42      0.00
  179                  0.00    145.13     59.42      0.00
  181                  0.00    145.14     59.42      0.00
  183                  0.00    145.13     58.12      0.00
  184                  0.00    143.77     55.36      0.00
  185                 36.42    144.38     55.63      0.00
  187                  0.00    145.08     57.44      0.00
  189                153.25    145.42     61.28      0.00
  191                116.30    145.31     52.13      0.00
  193                101.26    145.41     55.21      0.00
  195                  0.00    145.49     56.32      0.00
  197                 24.20    145.31     53.00      0.00
  199                169.43    139.92     61.49      0.00
  201                 63.35    139.15     60.25      0.00
  203               4593.90    138.97     59.35      0.00
  204                  0.00    144.83     53.66      0.00
  205                 92.81    139.89     51.51      0.00
  206                  0.00    138.99     59.79      0.00
  207                 98.53    139.16     56.40      0.00
  208                  0.00    138.79     53.21      0.00
  209                  1.24    138.45     60.86      0.00
  211                 12.31    138.34     56.91      0.00
  213                 19.79    138.27     56.88      0.00
  215                130.91    138.05     56.78      0.00
  217                 34.39    138.03     57.21      0.00
  219                 58.67    138.02     58.07      0.00
  225                 32.38    138.02     56.34      0.00
  229                 91.14    138.19     55.33      0.00
  231                 23.40    138.18     57.71      0.00
  237                 22.17    138.32     53.87      0.00
  239                 63.35    138.33     54.31      0.00
  241                  0.00    138.33     54.31      0.00
  243                  6.16    138.33     53.87      0.00
  247                 99.94    138.34     52.14      0.00
  249                  0.00    138.34     52.14      0.00
  251                 34.31    138.37     46.96      0.00
  253                 77.42    138.60     44.45      0.00
  255                 57.35    138.66     48.38      0.00
  257                  0.00    151.41     58.24      0.00
  259                  0.00    150.95     54.57      0.00
  261                  0.00    149.30     64.69      0.00
  263                  0.00    149.13     64.62      0.00
  265                  0.00    147.15     63.76      0.00
  267                  0.00    145.47     53.93      0.00
  269                  0.00    145.85     63.20      0.00
  271                  0.00    145.22     60.32      0.00
  273                  0.00    139.89     57.15      0.00
  275                  0.00    139.16     55.97      0.00
  River           -13165.62    220.00      0.00      0.00  Reservoir
  Lake                 0.00    167.00      0.00      0.00  Reservoir
  1                  153.16    145.04      5.69      0.00  Tank
  2                 -403.13    139.71     10.06      0.00  Tank
  3                 2065.14    158.13     12.62      0.00  Tank
   
   
  Link Results at 0:10:00 hrs:
  ----------------------------------------------
                       Flow  Velocity  Headloss
  Link                  gpm       fps   /1000ft
  ----------------------------------------------
  20               -2065.14      0.09      0.00
  40                -153.16      0.01      0.00
  50                 403.13      0.02      0.00
  60               13165.62      9.34      8.94
  101                  0.00      0.00      0.00
  103                164.32      0.26      0.02
  105               -434.05      1.23      0.54
  107                 25.51      0.07      0.00
  109                -24.83      0.04      0.00
  111               -353.42      1.00      0.37
  112                497.32      1.41      0.70
  113               -109.11      0.31      0.04
  114                121.43      0.78      0.37
  115                -52.08      0.33      0.08
  116                -16.09      0.05      0.00
  117                651.78      1.85      1.15
  119               -744.82      2.11      1.47
  120               1188.03      3.37      3.49
  121               1063.95      3.02      2.84
  122                375.71      2.40      2.98
  123               9983.80      4.53      1.78
  125              13165.62      5.98      2.97
  129               2747.01      1.95      0.56
  131               2461.27      1.75      0.46
  133              -2065.14      2.11      0.81
  135                371.06      0.26      0.01
  137                 60.71      0.10      0.00
  145                310.35      1.98      2.09
  147                301.99      1.93      1.99
  149               -618.55      3.95      7.50
  151               -609.75      3.89      7.31
  153                330.55      0.94      0.33
  155                369.79      1.05      0.40
  159               -381.93      1.08      0.43
  161               -420.37      2.68      3.67
  163               -158.26      0.45      0.08
  169                220.99      1.41      1.12
  171                467.27      1.33      0.62
  173               8078.39      3.67      1.20
  175               8004.85      3.63      1.18
  177               7946.18      3.61      1.17
  179               7664.84      3.48      1.09
  180                  3.69      0.01      0.00
  181                  3.69      0.01      0.00
  183               7431.98      3.37      1.03
  185                -20.68      0.13      0.01
  186                337.04      2.15      2.44
  187               6783.17      3.08      0.87
  189               4823.33      2.19      0.46
  191              -1903.97      1.35      0.29
  193              -1818.50      1.29      0.26
  195                227.08      0.64      0.16
  197                144.48      0.41      0.07
  199                 -8.67      0.02      0.00
  201               -153.16      0.43      0.08
  202                556.49      3.55      6.17
  203                255.87      1.63      1.46
  204                556.49      1.58      0.86
  205                337.04      0.96      0.34
  207                264.55      0.75      0.22
  209                170.83      1.09      0.69
  211                628.14      1.78      1.07
  213                166.21      0.47      0.09
  215                102.09      0.29      0.04
  217               -255.25      0.72      0.20
  219               -258.90      0.73      0.21
  221                258.90      1.65      1.50
  223                 27.26      0.08      0.00
  225                 51.45      0.15      0.01
  229               4823.33      3.42      1.37
  231               4541.65      3.22      1.23
  233               4593.90      3.26      1.46
  235                112.24      0.32      0.04
  237                462.08      1.31      0.61
  238                361.79      1.03      0.39
  239                 -1.76      0.00      0.00
  240                361.79      1.03      0.39
  241                361.79      1.03      0.39
  243                360.56      0.58      0.09
  245                310.27      0.50      0.07
  247                256.35      0.41      0.05
  249                125.44      0.20      0.01
  251                 58.67      0.12      0.01
  257                 32.38      0.09      0.00
  261                 34.12      0.22      0.04
  263                 23.40      0.07      0.00
  269                 37.98      0.11      0.01
  271                 80.42      0.51      0.17
  273                -64.61      0.18      0.02
  275                -44.13      0.13      0.01
  277                  6.16      0.02      0.00
  281                -50.29      0.21      0.02
  283                -83.82      0.24      0.03
  285                 17.10      0.05      0.00
  287               -167.33      0.68      0.22
  289                403.13      1.65      1.15
  291                 77.42      0.32      0.05
  293                101.03      0.64      0.26
  295                -66.73      0.19      0.02
  297                499.79      3.19      5.06
  299                240.13      1.53      1.30
  301                240.13      1.53      1.30
  303                259.66      1.66      1.50
  305                151.98      0.43      0.08
  307                411.65      1.17      0.49
  309                215.79      1.38      1.07
  311               -113.70      0.32      0.05
  313                486.53      1.38      0.67
  315              -2045.58      1.45      0.33
  317                113.83      0.73      0.33
  319                 -1.59      0.00      0.00
  321               7647.77      3.47      1.09
  323               -115.59      0.33      0.05
  325                141.61      0.90      0.49
  329              13165.62      5.98      3.01
  330                  0.00      0.00      0.00
  333                 -0.00      0.00      0.00
  10                   0.00      0.00      0.00  Pump
  335              13165.62      0.00    -93.37  Pump
   
   
  Node Results at 0:15:00 hrs:
  --------------------------------------------------------
                     Demand      Head  Pressure  Chemical
  Node                  gpm        ft       psi      mg/L
  --------------------------------------------------------
  10                   0.00    144.65     -1.02      0.00
  15                 609.75    126.41     40.91      0.00
  20                   0.00    158.20     12.65      0.00
  35                1818.50    145.15     57.48      0.00
  40                   0.00    145.05      5.70      0.00
  50                   0.00    139.58     10.00      0.00
  60                   0.00    209.00     90.56      0.00
  601                  0.00    302.39    131.02      0.00
  61                   0.00    302.39    131.02      0.00
  101                269.73    144.65     44.48      0.00
  103                189.14    144.62     44.03      0.00
  105                192.23    146.03     50.92      0.00
  107                 77.59    146.02     53.74      0.00
  109                328.59    144.62     53.87      0.00
  111                201.55    145.36     58.65      0.00
  113                 28.41    145.43     62.15      0.00
  115                 73.98    146.17     57.27      0.00
  117                167.15    149.38     58.83      0.00
  119                250.10    157.25     67.27      0.00
  120                  0.00    154.70     67.03      0.00
  121                 59.11    160.82     70.55      0.00
  123                  0.00    165.28     66.85      0.00
  125                 64.75    160.30     64.69      0.00
  127                 25.08    158.82     44.55      0.00
  129                  0.00    158.81     46.71      0.00
  131                 60.71    158.79     66.20      0.00
  139                  8.36    153.05     52.88      0.00
  141                 13.99    148.97     62.82      0.00
  143                  8.80    138.46     61.95      0.00
  145                 39.23    150.11     64.61      0.00
  147                 12.14    151.00     57.41      0.00
  149                 38.44    151.37     58.66      0.00
  151                205.16    155.11     52.69      0.00
  153                 62.72    155.21     38.57      0.00
  157                 73.54    154.74     61.37      0.00
  159                 58.67    151.29     62.95      0.00
  161                 22.44    148.95     62.81      0.00
  163                 13.38    148.48     62.17      0.00
  164                  0.00    148.48     62.17      0.00
  166                  3.69    148.48     65.20      0.00
  167                 20.68    146.56     65.67      0.00
  169                  0.00    146.56     65.67      0.00
  171                 55.86    145.45     64.76      0.00
  173                  0.00    145.43     64.75      0.00
  177                 82.60    145.15     59.43      0.00
  179                  0.00    145.15     59.43      0.00
  181                  0.00    145.15     59.43      0.00
  183                  0.00    145.15     58.13      0.00
  184                  0.00    143.78     55.37      0.00
  185                 36.42    144.40     55.63      0.00
  187                  0.00    145.09     57.45      0.00
  189                153.25    145.44     61.29      0.00
  191                116.30    145.33     52.14      0.00
  193                101.26    145.43     55.22      0.00
  195                  0.00    145.51     56.33      0.00
  197                 24.20    145.33     53.01      0.00
  199                169.43    139.92     61.49      0.00
  201                 63.35    139.14     60.25      0.00
  203               4593.90    138.97     59.35      0.00
  204                  0.00    144.85     53.66      0.00
  205                 92.81    139.89     51.51      0.00
  206                  0.00    138.97     59.78      0.00
  207                 98.53    139.15     56.40      0.00
  208                  0.00    138.76     53.19      0.00
  209                  1.24    138.40     60.84      0.00
  211                 12.31    138.28     56.88      0.00
  213                 19.79    138.21     56.85      0.00
  215                130.91    138.00     56.76      0.00
  217                 34.39    137.97     57.18      0.00
  219                 58.67    137.96     58.05      0.00
  225                 32.38    137.97     56.31      0.00
  229                 91.14    138.13     55.30      0.00
  231                 23.40    138.13     57.68      0.00
  237                 22.17    138.26     53.84      0.00
  239                 63.35    138.27     54.28      0.00
  241                  0.00    138.27     54.28      0.00
  243                  6.16    138.27     53.85      0.00
  247                 99.94    138.28     52.12      0.00
  249                  0.00    138.28     52.12      0.00
  251                 34.31    138.30     46.93      0.00
  253                 77.42    138.51     44.42      0.00
  255                 57.35    138.57     48.34      0.00
  257                  0.00    151.44     58.25      0.00
  259                  0.00    150.98     54.59      0.00
  261                  0.00    149.33     64.70      0.00
  263                  0.00    149.16     64.63      0.00
  265                  0.00    147.17     63.77      0.00
  267                  0.00    145.49     53.94      0.00
  269                  0.00    145.87     63.21      0.00
  271                  0.00    145.24     60.33      0.00
  273                  0.00    139.89     57.15      0.00
  275                  0.00    139.15     55.96      0.00
  River           -13164.17    220.00      0.00      0.00  Reservoir
  Lake                 0.00    167.00      0.00      0.00  Reservoir
  1                  151.86    145.05      5.70      0.00  Tank
  2                 -392.61    139.58     10.00      0.00  Tank
  3                 2054.46    158.20     12.65      0.00  Tank
   
   
  Link Results at 0:15:00 hrs:
  ----------------------------------------------
                       Flow  Velocity  Headloss
  Link                  gpm       fps   /1000ft
  ----------------------------------------------
  20               -2054.46      0.09      0.00
  40                -151.86      0.01      0.00
  50                 392.61      0.02      0.00
  60               13164.17      9.34      8.94
  101                  0.00      0.00      0.00
  103                164.61      0.26      0.02
  105               -434.34      1.23      0.54
  107                 25.69      0.07      0.00
  109                -24.53      0.04      0.00
  111               -353.12      1.00      0.37
  112                497.98      1.41      0.70
  113               -108.69      0.31      0.04
  114                121.66      0.78      0.37
  115                -51.90      0.33      0.08
  116                -15.45      0.04      0.00
  117                652.26      1.85      1.15
  119               -745.52      2.11      1.47
  120               1188.91      3.37      3.49
  121               1064.76      3.02      2.85
  122                376.01      2.40      2.98
  123               9992.37      4.54      1.78
  125              13164.17      5.98      2.97
  129               2736.68      1.94      0.56
  131               2450.80      1.74      0.46
  133              -2054.46      2.10      0.80
  135                371.26      0.26      0.01
  137                 60.71      0.10      0.00
  145                310.55      1.98      2.09
  147                302.19      1.93      1.99
  149               -618.55      3.95      7.50
  151               -609.75      3.89      7.31
  153                330.35      0.94      0.33
  155                369.59      1.05      0.40
  159               -381.73      1.08      0.43
  161               -420.17      2.68      3.67
  163               -158.41      0.45      0.08
  169                221.13      1.41      1.12
  171                466.92      1.32      0.62
  173               8086.43      3.67      1.21
  175               8012.89      3.64      1.19
  177               7954.21      3.61      1.17
  179               7672.73      3.48      1.09
  180                  3.69      0.01      0.00
  181                  3.69      0.01      0.00
  183               7439.80      3.38      1.03
  185                -20.68      0.13      0.01
  186                337.84      2.16      2.45
  187               6790.78      3.08      0.87
  189               4832.62      2.19      0.46
  191              -1902.29      1.35      0.28
  193              -1818.50      1.29      0.26
  195                225.59      0.64      0.16
  197                142.99      0.41      0.07
  199                 -8.87      0.03      0.00
  201               -151.86      0.43      0.08
  202                557.71      3.56      6.19
  203                256.30      1.64      1.47
  204                557.71      1.58      0.86
  205                337.84      0.96      0.34
  207                265.17      0.75      0.22
  209                170.98      1.09      0.69
  211                628.35      1.78      1.07
  213                166.86      0.47      0.09
  215                102.85      0.29      0.04
  217               -255.35      0.72      0.20
  219               -259.05      0.73      0.21
  221                259.05      1.65      1.50
  223                 27.81      0.08      0.00
  225                 52.00      0.15      0.01
  229               4832.62      3.43      1.38
  231               4550.24      3.23      1.23
  233               4593.90      3.26      1.46
  235                112.95      0.32      0.04
  237                463.66      1.32      0.61
  238                372.31      1.06      0.41
  239                  7.18      0.02      0.00
  240                372.31      1.06      0.41
  241                372.31      1.06      0.41
  243                371.08      0.59      0.10
  245                311.10      0.50      0.07
  247                256.35      0.41      0.05
  249                125.44      0.20      0.01
  251                 58.67      0.12      0.01
  257                 32.38      0.09      0.00
  261                 34.95      0.22      0.04
  263                 23.40      0.07      0.00
  269                 47.67      0.14      0.01
  271                 79.59      0.51      0.17
  273                -54.09      0.15      0.01
  275                -40.19      0.11      0.01
  277                  6.16      0.02      0.00
  281                -46.35      0.19      0.02
  283                -77.24      0.22      0.02
  285                 14.38      0.04      0.00
  287               -160.67      0.66      0.21
  289                392.61      1.60      1.09
  291                 77.42      0.32      0.05
  293                 97.17      0.62      0.24
  295                -62.86      0.18      0.02
  297                500.17      3.19      5.06
  299                240.31      1.53      1.30
  301                240.31      1.53      1.30
  303                259.86      1.66      1.51
  305                152.09      0.43      0.08
  307                411.95      1.17      0.49
  309                215.86      1.38      1.07
  311               -113.01      0.32      0.04
  313                486.55      1.38      0.67
  315              -2044.09      1.45      0.33
  317                114.19      0.73      0.33
  319                 -1.24      0.00      0.00
  321               7655.66      3.47      1.09
  323               -107.01      0.30      0.04
  325                141.80      0.91      0.49
  329              13164.17      5.98      3.01
  330                  0.00      0.00      0.00
  333                 -0.00      0.00      0.00
  10                   0.00      0.00      0.00  Pump
  335              13164.17      0.00    -93.39  Pump
   
   
  Node Results at 0:20:00 hrs:
  --------------------------------------------------------
                     Demand      Head  Pressure  Chemical
  Node                  gpm        ft       psi      mg/L
  --------------------------------------------------------
  10                   0.00    144.67     -1.01      0.00
  15                 609.75    126.45     40.93      0.00
  20                   0.00    158.26     12.68      0.00
  35                1818.50    145.16     57.48      0.00
  40                   0.00    145.07      5.71      0.00
  50                   0.00    139.44      9.94      0.00
  60                   0.00    209.00     90.56      0.00
  601                  0.00    302.40    131.03      0.00
  61                   0.00    302.40    131.03      0.00
  101                269.73    144.67     44.49      0.00
  103                189.14    144.64     44.04      0.00
  105                192.23    146.05     50.93      0.00
  107                 77.59    146.04     53.75      0.00
  109                328.59    144.65     53.88      0.00
  111                201.55    145.38     58.66      0.00
  113                 28.41    145.45     62.16      0.00
  115                 73.98    146.19     57.28      0.00
  117                167.15    149.40     58.84      0.00
  119                250.10    157.29     67.29      0.00
  120                  0.00    154.74     67.05      0.00
  121                 59.11    160.86     70.57      0.00
  123                  0.00    165.32     66.87      0.00
  125                 64.75    160.35     64.71      0.00
  127                 25.08    158.88     44.58      0.00
  129                  0.00    158.87     46.74      0.00
  131                 60.71    158.85     66.23      0.00
  139                  8.36    153.10     52.91      0.00
  141                 13.99    149.02     62.84      0.00
  143                  8.80    138.51     61.97      0.00
  145                 39.23    150.16     64.63      0.00
  147                 12.14    151.04     57.43      0.00
  149                 38.44    151.42     58.68      0.00
  151                205.16    155.15     52.71      0.00
  153                 62.72    155.25     38.59      0.00
  157                 73.54    154.78     61.39      0.00
  159                 58.67    151.32     62.97      0.00
  161                 22.44    148.97     62.82      0.00
  163                 13.38    148.50     62.18      0.00
  164                  0.00    148.50     62.18      0.00
  166                  3.69    148.50     65.21      0.00
  167                 20.68    146.58     65.68      0.00
  169                  0.00    146.58     65.68      0.00
  171                 55.86    145.47     64.77      0.00
  173                  0.00    145.45     64.76      0.00
  177                 82.60    145.17     59.43      0.00
  179                  0.00    145.16     59.43      0.00
  181                  0.00    145.17     59.44      0.00
  183                  0.00    145.16     58.13      0.00
  184                  0.00    143.79     55.37      0.00
  185                 36.42    144.41     55.64      0.00
  187                  0.00    145.11     57.46      0.00
  189                153.25    145.46     61.29      0.00
  191                116.30    145.35     52.15      0.00
  193                101.26    145.45     55.23      0.00
  195                  0.00    145.53     56.34      0.00
  197                 24.20    145.35     53.01      0.00
  199                169.43    139.91     61.49      0.00
  201                 63.35    139.14     60.24      0.00
  203               4593.90    138.96     59.35      0.00
  204                  0.00    144.86     53.67      0.00
  205                 92.81    139.88     51.51      0.00
  206                  0.00    138.95     59.77      0.00
  207                 98.53    139.14     56.39      0.00
  208                  0.00    138.73     53.18      0.00
  209                  1.24    138.36     60.82      0.00
  211                 12.31    138.23     56.86      0.00
  213                 19.79    138.16     56.83      0.00
  215                130.91    137.94     56.74      0.00
  217                 34.39    137.92     57.16      0.00
  219                 58.67    137.91     58.02      0.00
  225                 32.38    137.91     56.29      0.00
  229                 91.14    138.07     55.28      0.00
  231                 23.40    138.07     57.66      0.00
  237                 22.17    138.20     53.82      0.00
  239                 63.35    138.21     54.25      0.00
  241                  0.00    138.21     54.25      0.00
  243                  6.16    138.21     53.82      0.00
  247                 99.94    138.21     52.09      0.00
  249                  0.00    138.21     52.09      0.00
  251                 34.31    138.23     46.90      0.00
  253                 77.42    138.42     44.38      0.00
  255                 57.35    138.48     48.31      0.00
  257                  0.00    151.47     58.26      0.00
  259                  0.00    151.01     54.60      0.00
  261                  0.00    149.35     64.72      0.00
  263                  0.00    149.18     64.64      0.00
  265                  0.00    147.19     63.78      0.00
  267                  0.00    145.50     53.95      0.00
  269                  0.00    145.89     63.21      0.00
  271                  0.00    145.25     60.34      0.00
  273                  0.00    139.88     57.14      0.00
  275                  0.00    139.15     55.96      0.00
  River           -13162.72    220.00      0.00      0.00  Reservoir
  Lake                 0.00    167.00      0.00      0.00  Reservoir
  1                  150.76    145.07      5.71      0.00  Tank
  2                 -382.37    139.44      9.94      0.00  Tank
  3                 2043.87    158.26     12.68      0.00  Tank
   
   
  Link Results at 0:20:00 hrs:
  ----------------------------------------------
                       Flow  Velocity  Headloss
  Link                  gpm       fps   /1000ft
  ----------------------------------------------
  20               -2043.87      0.09      0.00
  40                -150.76      0.01      0.00
  50                 382.37      0.02      0.00
  60               13162.72      9.33      8.93
  101                  0.00      0.00      0.00
  103                164.91      0.26      0.02
  105               -434.64      1.23      0.54
  107                 25.87      0.07      0.00
  109                -24.24      0.04      0.00
  111               -352.83      1.00      0.37
  112                498.64      1.41      0.70
  113               -108.28      0.31      0.04
  114                121.88      0.78      0.37
  115                -51.72      0.33      0.08
  116                -14.82      0.04      0.00
  117                652.73      1.85      1.15
  119               -746.22      2.12      1.47
  120               1189.79      3.38      3.50
  121               1065.56      3.02      2.85
  122                376.31      2.40      2.99
  123              10000.86      4.54      1.79
  125              13162.72      5.97      2.97
  129               2726.43      1.93      0.56
  131               2440.41      1.73      0.45
  133              -2043.87      2.09      0.79
  135                371.46      0.26      0.01
  137                 60.71      0.10      0.00
  145                310.76      1.98      2.10
  147                302.39      1.93      1.99
  149               -618.55      3.95      7.50
  151               -609.75      3.89      7.31
  153                330.15      0.94      0.33
  155                369.38      1.05      0.40
  159               -381.52      1.08      0.43
  161               -419.96      2.68      3.66
  163               -158.55      0.45      0.08
  169                221.27      1.41      1.12
  171                466.57      1.32      0.62
  173               8094.40      3.67      1.21
  175               8020.86      3.64      1.19
  177               7962.18      3.61      1.17
  179               7680.55      3.49      1.10
  180                  3.69      0.01      0.00
  181                  3.69      0.01      0.00
  183               7447.55      3.38      1.04
  185                -20.68      0.13      0.01
  186                338.62      2.16      2.46
  187               6798.32      3.09      0.87
  189               4841.67      2.20      0.47
  191              -1900.78      1.35      0.28
  193              -1818.50      1.29      0.26
  195                224.26      0.64      0.16
  197                141.66      0.40      0.07
  199                 -9.09      0.03      0.00
  201               -150.76      0.43      0.08
  202                558.91      3.57      6.22
  203                256.71      1.64      1.47
  204                558.91      1.59      0.86
  205                338.62      0.96      0.34
  207                265.81      0.75      0.22
  209                171.12      1.09      0.69
  211                628.56      1.78      1.07
  213                167.50      0.48      0.09
  215                103.61      0.29      0.04
  217               -255.45      0.72      0.20
  219               -259.20      0.74      0.21
  221                259.20      1.65      1.50
  223                 28.34      0.08      0.00
  225                 52.54      0.15      0.01
  229               4841.67      3.43      1.38
  231               4558.44      3.23      1.24
  233               4593.90      3.26      1.46
  235                113.80      0.32      0.05
  237                465.39      1.32      0.61
  238                382.56      1.09      0.43
  239                 15.70      0.04      0.00
  240                382.56      1.09      0.43
  241                382.56      1.09      0.43
  243                381.32      0.61      0.10
  245                312.04      0.50      0.07
  247                256.35      0.41      0.05
  249                125.44      0.20      0.01
  251                 58.67      0.12      0.01
  257                 32.38      0.09      0.00
  261                 35.89      0.23      0.04
  263                 23.40      0.07      0.00
  269                 56.97      0.16      0.01
  271                 78.65      0.50      0.16
  273                -43.84      0.12      0.01
  275                -36.35      0.10      0.01
  277                  6.16      0.02      0.00
  281                -42.51      0.17      0.02
  283                -70.83      0.20      0.02
  285                 11.74      0.03      0.00
  287               -154.19      0.63      0.19
  289                382.37      1.56      1.04
  291                 77.42      0.32      0.05
  293                 93.40      0.60      0.23
  295                -59.10      0.17      0.01
  297                500.54      3.19      5.07
  299                240.49      1.53      1.30
  301                240.49      1.53      1.30
  303                260.06      1.66      1.51
  305                152.19      0.43      0.08
  307                412.24      1.17      0.49
  309                215.93      1.38      1.07
  311               -112.33      0.32      0.04
  313                486.57      1.38      0.67
  315              -2042.76      1.45      0.33
  317                114.51      0.73      0.33
  319                 -0.71      0.00      0.00
  321               7663.48      3.48      1.09
  323                -98.81      0.28      0.03
  325                141.98      0.91      0.49
  329              13162.72      5.97      3.01
  330                  0.00      0.00      0.00
  333                 -0.00      0.00      0.00
  10                   0.00      0.00      0.00  Pump
  335              13162.72      0.00    -93.40  Pump
   
   
  Node Results at 0:25:00 hrs:
  --------------------------------------------------------
                     Demand      Head  Pressure  Chemical
  Node                  gpm        ft       psi      mg/L
  --------------------------------------------------------
  10                   0.00    144.69     -1.00      0.00
  15                 609.75    126.50     40.95      0.00
  20                   0.00    158.33     12.71      0.00
  35                1818.50    145.18     57.49      0.00
  40                   0.00    145.09      5.72      0.00
  50                   0.00    139.31      9.89      0.00
  60                   0.00    209.01     90.56      0.00
  601                  0.00    302.42    131.04      0.00
  61                   0.00    302.42    131.04      0.00
  101                269.73    144.69     44.50      0.00
  103                189.14    144.66     44.05      0.00
  105                192.23    146.07     50.94      0.00
  107                 77.59    146.07     53.76      0.00
  109                328.59    144.67     53.89      0.00
  111                201.55    145.40     58.67      0.00
  113                 28.41    145.47     62.17      0.00
  115                 73.98    146.21     57.29      0.00
  117                167.15    149.43     58.86      0.00
  119                250.10    157.33     67.30      0.00
  120                  0.00    154.77     67.06      0.00
  121                 59.11    160.91     70.59      0.00
  123                  0.00    165.37     66.89      0.00
  125                 64.75    160.40     64.73      0.00
  127                 25.08    158.94     44.60      0.00
  129                  0.00    158.93     46.77      0.00
  131                 60.71    158.91     66.25      0.00
  139                  8.36    153.16     52.93      0.00
  141                 13.99    149.06     62.86      0.00
  143                  8.80    138.56     61.99      0.00
  145                 39.23    150.20     64.65      0.00
  147                 12.14    151.09     57.45      0.00
  149                 38.44    151.46     58.69      0.00
  151                205.16    155.19     52.73      0.00
  153                 62.72    155.29     38.60      0.00
  157                 73.54    154.81     61.40      0.00
  159                 58.67    151.35     62.98      0.00
  161                 22.44    149.00     62.83      0.00
  163                 13.38    148.52     62.19      0.00
  164                  0.00    148.52     62.19      0.00
  166                  3.69    148.52     65.22      0.00
  167                 20.68    146.60     65.69      0.00
  169                  0.00    146.60     65.69      0.00
  171                 55.86    145.49     64.77      0.00
  173                  0.00    145.46     64.76      0.00
  177                 82.60    145.18     59.44      0.00
  179                  0.00    145.18     59.44      0.00
  181                  0.00    145.19     59.44      0.00
  183                  0.00    145.18     58.14      0.00
  184                  0.00    143.80     55.38      0.00
  185                 36.42    144.43     55.65      0.00
  187                  0.00    145.13     57.47      0.00
  189                153.25    145.48     61.30      0.00
  191                116.30    145.37     52.15      0.00
  193                101.26    145.47     55.23      0.00
  195                  0.00    145.55     56.35      0.00
  197                 24.20    145.37     53.02      0.00
  199                169.43    139.91     61.49      0.00
  201                 63.35    139.13     60.24      0.00
  203               4593.90    138.96     59.34      0.00
  204                  0.00    144.88     53.68      0.00
  205                 92.81    139.88     51.51      0.00
  206                  0.00    138.93     59.77      0.00
  207                 98.53    139.14     56.39      0.00
[...]
  219                 67.35    139.93     58.90     13.08
  225                 37.16    139.93     57.17     12.67
  229                104.61    139.94     56.09     13.89
  231                 26.86    139.94     58.47      5.73
  237                 25.44    140.02     54.60      9.97
  239                 72.71    139.99     55.02      7.66
  241                  0.00    139.99     55.02      7.85
  243                  7.07    139.98     54.59      0.00
  247                114.72    139.98     52.86     20.26
  249                  0.00    139.98     52.86     26.54
  251                 39.38    139.98     47.66     15.60
  253                 88.87    139.95     45.04     17.94
  255                 65.84    140.02     48.97      0.55
  257                  0.00    152.75     58.82      0.00
  259                  0.00    152.31     55.17      0.00
  261                  0.00    150.74     65.32      0.00
  263                  0.00    150.57     65.24      0.00
  265                  0.00    149.73     64.88      0.00
  267                  0.00    148.03     55.04      0.00
  269                  0.00    148.53     64.36      0.00
  271                  0.00    148.14     61.59      0.00
  273                  0.00    143.51     58.71      0.00
  275                  0.00    142.95     57.61      0.00
  River           -13184.82    220.00      0.00      0.00  Reservoir
  Lake                 0.00    167.00      0.00      0.00  Reservoir
  1                 -443.76    148.75      7.30      5.08  Tank
  2                 -247.31    140.45     10.38      0.55  Tank
  3                  754.56    160.86     13.81      0.00  Tank
   
   
  Link Results at 23:55:00 hrs:
  ----------------------------------------------
                       Flow  Velocity  Headloss
  Link                  gpm       fps   /1000ft
  ----------------------------------------------
  20                -754.56      0.03      0.00
  40                 443.76      0.02      0.00
  50                 247.31      0.01      0.00
  60               13184.82      9.35      8.96
  101                  0.00      0.00      0.00
  103                123.18      0.20      0.01
  105               -432.80      1.23      0.54
  107                -10.09      0.03      0.00
  109                -93.94      0.15      0.01
  111               -471.12      1.34      0.63
  112                419.23      1.19      0.51
  113               -188.21      0.53      0.11
  114                 86.73      0.55      0.20
  115                -99.15      0.63      0.25
  116               -134.10      0.38      0.06
  117                643.36      1.83      1.12
  119               -690.03      1.96      1.27
  120               1167.85      3.31      3.38
  121               1037.52      2.94      2.71
  122                357.41      2.28      2.72
  123               9265.70      4.21      1.55
  125              11059.93      5.02      2.15
  129               1368.96      0.97      0.15
  131               1094.51      0.78      0.10
  133               -754.56      0.77      0.12
  135                311.17      0.22      0.01
  137                 69.68      0.11      0.00
  145                241.48      1.54      1.31
  147                231.88      1.48      1.22
  149               -367.85      2.35      2.87
  151               -357.74      2.28      2.72
  153                152.02      0.43      0.08
  155                197.06      0.56      0.13
  159               -210.99      0.60      0.14
  161               -255.12      1.63      1.46
  163               -128.13      0.36      0.06
  169                200.13      1.28      0.93
  171                362.49      1.03      0.39
  173               7448.27      3.38      1.04
  175               7363.85      3.34      1.01
  177               7296.50      3.31      1.00
  179               7011.89      3.18      0.93
  180                  4.24      0.01      0.00
  181                  4.24      0.01      0.00
  183               6775.51      3.08      0.87
  185                -23.73      0.15      0.02
  186                255.82      1.63      1.46
  187               6127.80      2.78      0.72
  189               4425.35      2.01      0.39
  191              -1638.33      1.16      0.22
  193              -1864.71      1.32      0.27
  195               -116.10      0.33      0.05
  197               -210.92      0.60      0.14
  199                232.84      0.66      0.17
  201                443.76      1.26      0.56
  202                497.81      3.18      5.02
  203                283.81      1.81      1.77
  204                497.81      1.41      0.70
  205                255.82      0.73      0.20
  207                 50.97      0.14      0.01
  209                208.99      1.33      1.01
  211                623.97      1.77      1.06
  213                 46.83      0.13      0.01
  215                -77.83      0.22      0.02
  217               -303.14      0.86      0.28
  219               -258.86      0.73      0.21
  221                258.86      1.65      1.49
  223               -122.82      0.35      0.05
  225                -95.04      0.27      0.03
  229               4425.35      3.14      1.17
  231               4032.93      2.86      0.99
  233               3805.58      2.70      1.03
  235                197.93      0.56      0.13
  237                491.02      1.39      0.68
  238                630.74      1.79      1.08
  239                252.82      0.72      0.20
  240                630.74      1.79      1.08
  241                630.74      1.79      1.08
  243                629.32      1.00      0.26
  245                388.88      0.62      0.11
  247                294.26      0.47      0.06
  249                143.99      0.23      0.02
  251                 67.35      0.14      0.01
  257                 37.16      0.11      0.01
  261                 71.90      0.46      0.14
  263                 26.86      0.08      0.00
  269                226.30      0.64      0.16
  271                 59.58      0.38      0.10
  273                141.28      0.40      0.07
  275                 30.06      0.09      0.00
  277                  7.07      0.02      0.00
  281                 22.99      0.09      0.01
  283                 38.50      0.11      0.01
  285                -34.96      0.10      0.00
  287                -56.77      0.23      0.03
  289                247.31      1.01      0.46
  291                 88.87      0.36      0.07
  293                 35.84      0.23      0.04
  295                  3.54      0.01      0.00
  297                487.74      3.11      4.83
  299                234.51      1.50      1.24
  301                234.51      1.50      1.25
  303                253.23      1.62      1.44
  305                155.63      0.44      0.08
  307                408.86      1.16      0.48
  309                216.79      1.38      1.08
  311               -294.62      0.84      0.26
  313                513.69      1.46      0.74
  315              -1748.61      1.24      0.24
  317                 98.19      0.63      0.25
  319                 99.74      0.28      0.04
  321               6992.29      3.17      0.92
  323                154.63      0.44      0.08
  325                110.28      0.70      0.31
  329              13184.82      5.98      3.02
  330                  0.00      0.00      0.00
  333                 -0.00      0.00      0.00
  10                   0.00      0.00      0.00  Pump
  335              13184.82      0.00    -93.21  Pump
   
   
  Node Results at 24:00:00 hrs:
  --------------------------------------------------------
                     Demand      Head  Pressure  Chemical
  Node                  gpm        ft       psi      mg/L
  --------------------------------------------------------
  10                   0.00    147.91      0.40      0.00
  15                 609.75    129.26     42.14      0.00
  20                   0.00    160.89     13.82      0.00
  35                1818.50    148.55     58.95      0.34
  40                   0.00    148.70      7.28      5.08
  50                   0.00    140.37     10.34      0.55
  60                   0.00    209.15     90.62      0.00
  601                  0.00    303.36    131.45      0.00
  61                   0.00    303.36    131.45      0.00
  101                269.73    147.91     45.89      0.00
  103                189.14    147.89     45.45      0.00
  105                192.23    149.26     52.32      0.00
  107                 77.59    149.25     55.14      0.00
  109                328.59    147.89     55.29      0.00
  111                201.55    148.65     60.08      0.00
  113                 28.41    148.73     63.58      0.00
  115                 73.98    149.42     58.68      0.00
  117                167.15    152.52     60.20      0.00
  119                250.10    160.19     68.54      0.00
  120                  0.00    157.71     68.33      0.00
  121                 59.11    163.66     71.78      0.00
  123                  0.00    168.06     68.05      0.00
  125                 64.75    163.11     65.91      0.00
  127                 25.08    161.56     45.74      0.00
  129                  0.00    161.54     47.90      0.00
  131                 60.71    161.52     67.39      0.00
  139                  8.36    155.85     54.10      0.00
  141                 13.99    151.82     64.05      0.00
  143                  8.80    141.31     63.18      0.00
  145                 39.23    152.97     65.85      0.00
  147                 12.14    153.87     58.65      0.00
  149                 38.44    154.24     59.90      0.00
  151                205.16    158.02     53.95      0.00
  153                 62.72    158.11     39.82      0.00
  157                 73.54    157.76     62.68      0.00
  159                 58.67    154.43     64.31      0.00
  161                 22.44    152.17     64.20      0.00
  163                 13.38    151.71     63.57      0.00
  164                  0.00    151.71     63.57     50.00
  166                  3.69    151.71     66.60      0.00
  167                 20.68    149.86     67.10      0.00
  169                  0.00    149.86     67.10      0.00
  171                 55.86    148.79     66.20      0.00
  173                  0.00    148.76     66.19      0.00
  177                 82.60    148.56     60.90      5.08
  179                  0.00    148.56     60.91      5.08
  181                  0.00    148.56     60.90      0.32
  183                  0.00    148.56     59.60      4.17
  184                  0.00    147.04     56.78      2.24
  185                 36.42    147.70     57.07      2.21
  187                  0.00    148.41     58.89      0.00
  189                153.25    148.78     62.73      0.00
  191                116.30    148.63     53.57      0.00
  193                101.26    148.74     56.65      0.00
  195                  0.00    148.81     57.76      0.00
  197                 24.20    148.63     54.44      0.00
  199                169.43    142.93     62.80      0.00
  201                 63.35    142.11     61.53      0.00
  203               4593.90    141.93     60.63      0.00
  204                  0.00    148.16     55.10      0.00
  205                 92.81    142.88     52.81      0.00
  206                  0.00    141.65     60.94      0.00
  207                 98.53    142.02     57.64      0.00
  208                  0.00    141.23     54.26      0.00
  209                  1.24    140.50     61.75      0.08
  211                 12.31    140.26     57.74      2.93
  213                 19.79    140.18     57.71      3.95
  215                130.91    139.96     57.61     26.18
  217                 34.39    139.94     58.04      0.00
  219                 58.67    139.93     58.90     13.58
  225                 32.38    139.93     57.17     13.30
  229                 91.14    139.95     56.09     12.25
  231                 23.40    139.94     58.47      5.58
  237                 22.17    140.01     54.60      9.97
  239                 63.35    139.99     55.02      7.92
  241                  0.00    139.99     55.02      7.62
  243                  6.16    139.99     54.59      0.00
  247                 99.94    139.98     52.86     20.54
  249                  0.00    139.98     52.86     25.03
  251                 34.31    139.98     47.66     15.46
  253                 77.42    139.96     45.05     17.77
  255                 57.35    140.02     48.97      0.55
  257                  0.00    154.53     59.59      0.00
  259                  0.00    154.08     55.93      0.00
  261                  0.00    152.47     66.07      0.00
  263                  0.00    152.31     65.99      0.00
  265                  0.00    150.45     65.19      0.00
  267                  0.00    148.81     55.38      0.00
  269                  0.00    149.20     64.65      0.00
  271                  0.00    148.62     61.80      0.00
  273                  0.00    142.88     58.44      0.00
  275                  0.00    142.11     57.24      0.00
  River           -13070.28    220.00      0.00      0.00  Reservoir
  Lake                 0.00    167.00      0.00      0.00  Reservoir
  1                 -186.47    148.70      7.28      5.08  Tank
  2                 -221.05    140.37     10.34      0.55  Tank
  3                 2127.33    160.89     13.82      0.00  Tank
   
   
  Link Results at 24:00:00 hrs:
  ----------------------------------------------
                       Flow  Velocity  Headloss
  Link                  gpm       fps   /1000ft
  ----------------------------------------------
  20               -2127.33      0.09      0.00
  40                 186.47      0.01      0.00
  50                 221.05      0.01      0.00
  60               13070.28      9.27      8.82
  101                  0.00      0.00      0.00
  103                159.05      0.25      0.02
  105               -428.78      1.22      0.53
  107                 22.22      0.06      0.00
  109                -30.09      0.05      0.00
  111               -358.68      1.02      0.38
  112                485.50      1.38      0.66
  113               -117.28      0.33      0.05
  114                117.35      0.75      0.35
  115                -55.37      0.35      0.09
  116                -28.35      0.08      0.00
  117                643.22      1.82      1.12
  119               -732.21      2.08      1.42
  120               1172.22      3.33      3.40
  121               1049.54      2.98      2.77
  122                370.36      2.36      2.90
  123               9835.34      4.46      1.73
  125              13070.28      5.93      2.93
  129               2805.46      1.99      0.59
  131               2521.71      1.79      0.48
  133              -2127.33      2.17      0.85
  135                369.30      0.26      0.01
  137                 60.71      0.10      0.00
  145                308.60      1.97      2.07
  147                300.24      1.92      1.97
  149               -618.55      3.95      7.50
  151               -609.75      3.89      7.31
  153                332.31      0.94      0.33
  155                371.54      1.05      0.41
  159               -383.68      1.09      0.43
  161               -422.12      2.69      3.70
  163               -156.28      0.44      0.08
  169                219.00      1.40      1.10
  171                471.00      1.34      0.63
  173               7942.02      3.60      1.17
  175               7868.47      3.57      1.15
  177               7809.80      3.54      1.13
  179               7531.83      3.42      1.06
  180                  3.69      0.01      0.00
  181                  3.69      0.01      0.00
  183               7302.16      3.31      1.00
  185                -20.68      0.13      0.01
  186                339.43      2.17      2.47
  187               6668.49      3.03      0.84
  189               4983.51      2.26      0.49
  191              -1629.12      1.16      0.21
  193              -1818.50      1.29      0.26
  195                -54.98      0.16      0.01
  197               -137.58      0.39      0.06
  199                 48.88      0.14      0.01
  201                186.47      0.53      0.11
  202                578.39      3.69      6.63
  203                275.39      1.76      1.68
  204                578.39      1.64      0.92
  205                339.43      0.96      0.34
  207                226.51      0.64      0.16
  209                177.87      1.14      0.75
  211                613.00      1.74      1.02
  213                161.55      0.46      0.09
  215                 79.03      0.22      0.02
  217               -259.50      0.74      0.21
  219               -255.53      0.72      0.20
  221                255.53      1.63      1.46
  223                 18.35      0.05      0.00
  225                 42.55      0.12      0.01
  229               4983.51      3.53      1.46
  231               4676.48      3.32      1.30
  233               4593.90      3.26      1.46
  235                137.60      0.39      0.06
  237                505.77      1.43      0.72
  238                543.88      1.54      0.82
  239                136.64      0.39      0.06
  240                543.88      1.54      0.82
  241                543.88      1.54      0.82
  243                542.64      0.87      0.20
  245                337.65      0.54      0.08
  247                256.35      0.41      0.05
  249                125.44      0.20      0.01
  251                 58.67      0.12      0.01
  257                 32.38      0.09      0.00
  261                 61.51      0.39      0.10
  263                 23.40      0.07      0.00
  269                192.68      0.55      0.12
  271                 53.03      0.34      0.08
  273                117.48      0.33      0.05
  275                 24.10      0.07      0.00
  277                  6.16      0.02      0.00
  281                 17.94      0.07      0.00
  283                 30.04      0.09      0.00
  285                -29.10      0.08      0.00
  287                -52.91      0.22      0.03
  289                221.05      0.90      0.38
  291                 77.42      0.32      0.05
  293                 33.37      0.21      0.03
  295                  0.94      0.00      0.00
  297                493.04      3.15      4.93
  299                236.89      1.51      1.27
  301                236.89      1.51      1.27
  303                256.15      1.63      1.47
  305                150.18      0.43      0.08
  307                406.33      1.15      0.48
  309                212.60      1.36      1.04
  311               -133.57      0.38      0.06
  313                478.60      1.36      0.65
  315              -1763.52      1.25      0.25
  317                117.41      0.75      0.35
  319                 20.19      0.06      0.00
  321               7514.77      3.41      1.05
  323                 19.23      0.05      0.00
  325                134.40      0.86      0.44
  329              13070.28      5.93      2.97
  330                  0.00      0.00      0.00
  333                 -0.00      0.00      0.00
  10                   0.00      0.00      0.00  Pump
  335              13070.28      0.00    -94.21  Pump
   
  Analysis ended Wed May 06 17:45:21 2020
