  Page 1                                    Wed May 06 17:50:00 2020

  ******************************************************************
  *                           E P A N E T                          *
  *                   Hydraulic and Water Quality                  *
  *                   Analysis for Pipe Networks                   *
  *                         Version 2.00.12                        *
  ******************************************************************
  
  Analysis begun Wed May 06 17:50:00 2020

   
  Hydraulic Status:
  -----------------------------------------------------------------------
     0:00:00: Balanced after 5 trials
     0:00:00: Reservoir River is emptying
     0:00:00: Reservoir Lake is closed
     0:00:00: Tank 1 is filling at 13.10 ft
     0:00:00: Tank 2 is emptying at 23.50 ft
     0:00:00: Tank 3 is filling at 29.00 ft
   
     0:05:00: Balanced after 2 trials
   
     0:10:00: Balanced after 2 trials
   
     0:15:00: Balanced after 2 trials
   
     0:20:00: Balanced after 2 trials
   
     0:25:00: Balanced after 2 trials
   
     0:30:00: Balanced after 2 trials
   
     0:35:00: Balanced after 2 trials
   
     0:40:00: Balanced after 2 trials
   
     0:45:00: Balanced after 2 trials
   
     0:50:00: Balanced after 2 trials
   
     0:55:00: Balanced after 2 trials
   
     1:00:00: Pump 10 changed by timer control
     1:00:00: Balanced after 7 trials
     1:00:00: Reservoir Lake is emptying
     1:00:00: Pump 10 changed from closed to open
   
     1:05:00: Balanced after 2 trials
   
     1:10:00: Balanced after 2 trials
   
     1:15:00: Balanced after 2 trials
   
     1:20:00: Balanced after 2 trials
   
     1:25:00: Balanced after 2 trials
   
     1:30:00: Balanced after 2 trials
   
     1:35:00: Balanced after 2 trials
   
     1:40:00: Balanced after 2 trials
   
     1:45:00: Balanced after 2 trials
   
     1:50:00: Balanced after 2 trials
   
     1:55:00: Balanced after 2 trials
   
     2:00:00: Balanced after 4 trials
     2:00:00: Tank 2 is filling at 21.09 ft
   
     2:05:00: Balanced after 1 trials
   
     2:10:00: Balanced after 1 trials
   
     2:15:00: Balanced after 1 trials
   
     2:20:00: Balanced after 1 trials
   
     2:25:00: Balanced after 1 trials
   
     2:30:00: Balanced after 1 trials
   
     2:35:00: Balanced after 1 trials
   
     2:40:00: Balanced after 1 trials
   
     2:45:00: Balanced after 1 trials
   
     2:50:00: Balanced after 1 trials
   
     2:55:00: Balanced after 1 trials
   
     3:00:00: Balanced after 3 trials
     3:00:00: Tank 2 is emptying at 22.46 ft
   
     3:05:00: Balanced after 1 trials
   
     3:10:00: Balanced after 1 trials
   
     3:15:00: Balanced after 1 trials
   
     3:20:00: Balanced after 1 trials
   
     3:25:00: Balanced after 1 trials
   
     3:30:00: Balanced after 1 trials
   
     3:35:00: Balanced after 1 trials
   
     3:40:00: Balanced after 1 trials
   
     3:45:00: Balanced after 1 trials
   
     3:50:00: Balanced after 1 trials
   
     3:55:00: Balanced after 1 trials
   
     4:00:00: Balanced after 4 trials
     4:00:00: Tank 2 is filling at 22.27 ft
   
     4:05:00: Balanced after 1 trials
   
     4:10:00: Balanced after 1 trials
   
     4:15:00: Balanced after 1 trials
   
     4:16:21: Pump 335 changed by Tank 1 control
     4:16:21: Pipe 330 changed by Tank 1 control
     4:16:21: Balanced after 4 trials
     4:16:21: Pipe 330 changed from closed to open
     4:16:21: Pump 335 changed from open to closed
   
     4:20:00: Balanced after 2 trials
   
     4:25:00: Balanced after 2 trials
   
     4:30:00: Balanced after 2 trials
   
     4:35:00: Balanced after 2 trials
   
     4:40:00: Balanced after 2 trials
   
     4:45:00: Balanced after 2 trials
   
     4:50:00: Balanced after 2 trials
   
     4:55:00: Balanced after 2 trials
   
     5:00:00: Balanced after 3 trials
   
     5:05:00: Balanced after 2 trials
   
     5:10:00: Balanced after 2 trials
   
     5:15:00: Balanced after 2 trials
   
     5:20:00: Balanced after 2 trials
   
     5:25:00: Balanced after 2 trials
   
     5:30:00: Balanced after 2 trials
   
     5:35:00: Balanced after 2 trials
   
     5:40:00: Balanced after 2 trials
   
     5:45:00: Balanced after 2 trials
   
     5:50:00: Balanced after 2 trials
   
     5:55:00: Balanced after 2 trials
   
     6:00:00: Balanced after 3 trials
   
     6:05:00: Balanced after 1 trials
   
     6:10:00: Balanced after 1 trials
   
     6:15:00: Balanced after 1 trials
   
     6:20:00: Balanced after 1 trials
   
     6:25:00: Balanced after 1 trials
   
     6:30:00: Balanced after 1 trials
   
     6:35:00: Balanced after 1 trials
   
     6:40:00: Balanced after 1 trials
   
     6:45:00: Balanced after 1 trials
   
     6:50:00: Balanced after 1 trials
   
     6:55:00: Balanced after 1 trials
   
     7:00:00: Balanced after 3 trials
   
     7:05:00: Balanced after 1 trials
   
     7:10:00: Balanced after 1 trials
   
     7:15:00: Balanced after 1 trials
   
     7:20:00: Balanced after 1 trials
   
     7:25:00: Balanced after 1 trials
   
     7:30:00: Balanced after 1 trials
   
     7:35:00: Balanced after 1 trials
   
     7:40:00: Balanced after 1 trials
   
     7:45:00: Balanced after 1 trials
   
     7:50:00: Balanced after 1 trials
   
     7:55:00: Balanced after 1 trials
   
     8:00:00: Balanced after 3 trials
     8:00:00: Tank 1 is emptying at 21.85 ft
   
     8:05:00: Balanced after 1 trials
   
     8:10:00: Balanced after 1 trials
   
     8:15:00: Balanced after 1 trials
   
     8:20:00: Balanced after 1 trials
   
     8:25:00: Balanced after 1 trials
     8:25:00: Tank 1 is filling at 21.84 ft
   
     8:30:00: Balanced after 1 trials
   
     8:35:00: Balanced after 1 trials
   
     8:40:00: Balanced after 1 trials
   
     8:45:00: Balanced after 1 trials
   
     8:50:00: Balanced after 1 trials
   
     8:55:00: Balanced after 1 trials
   
     9:00:00: Balanced after 4 trials
     9:00:00: Tank 3 is emptying at 35.32 ft
   
     9:05:00: Balanced after 2 trials
   
     9:10:00: Balanced after 2 trials
   
     9:15:00: Balanced after 2 trials
   
     9:20:00: Balanced after 2 trials
   
     9:25:00: Balanced after 2 trials
   
     9:30:00: Balanced after 2 trials
   
     9:35:00: Balanced after 2 trials
   
     9:40:00: Balanced after 2 trials
   
     9:45:00: Balanced after 2 trials
   
     9:50:00: Balanced after 2 trials
   
     9:55:00: Balanced after 2 trials
   
    10:00:00: Balanced after 4 trials
    10:00:00: Tank 1 is emptying at 22.80 ft
   
    10:05:00: Balanced after 1 trials
   
    10:10:00: Balanced after 1 trials
   
    10:15:00: Balanced after 1 trials
   
    10:20:00: Balanced after 1 trials
   
    10:25:00: Balanced after 1 trials
   
    10:30:00: Balanced after 1 trials
   
    10:35:00: Balanced after 1 trials
   
    10:40:00: Balanced after 1 trials
   
    10:45:00: Balanced after 1 trials
   
    10:50:00: Balanced after 1 trials
   
    10:55:00: Balanced after 1 trials
   
    11:00:00: Balanced after 3 trials
    11:00:00: Tank 2 is emptying at 28.23 ft
   
    11:05:00: Balanced after 1 trials
   
    11:10:00: Balanced after 1 trials
   
    11:15:00: Balanced after 1 trials
   
    11:20:00: Balanced after 1 trials
   
    11:25:00: Balanced after 1 trials
   
    11:30:00: Balanced after 1 trials
   
    11:35:00: Balanced after 1 trials
   
    11:40:00: Balanced after 1 trials
   
    11:45:00: Balanced after 1 trials
   
    11:50:00: Balanced after 1 trials
   
    11:55:00: Balanced after 1 trials
   
    12:00:00: Balanced after 3 trials
   
    12:05:00: Balanced after 1 trials
   
    12:10:00: Balanced after 1 trials
   
    12:15:00: Balanced after 1 trials
   
    12:20:00: Balanced after 1 trials
   
    12:25:00: Balanced after 1 trials
   
    12:30:00: Balanced after 1 trials
   
    12:35:00: Balanced after 1 trials
   
    12:40:00: Balanced after 1 trials
   
    12:45:00: Balanced after 1 trials
   
    12:50:00: Balanced after 1 trials
   
    12:55:00: Balanced after 1 trials
   
    13:00:00: Balanced after 2 trials
   
    13:05:00: Balanced after 1 trials
   
    13:10:00: Balanced after 1 trials
   
    13:15:00: Balanced after 1 trials
   
    13:20:00: Balanced after 1 trials
   
    13:25:00: Balanced after 1 trials
   
    13:30:00: Balanced after 1 trials
   
    13:35:00: Balanced after 1 trials
   
    13:40:00: Balanced after 1 trials
   
    13:45:00: Balanced after 1 trials
   
    13:50:00: Balanced after 1 trials
   
    13:55:00: Balanced after 1 trials
   
    14:00:00: Balanced after 4 trials
    14:00:00: Tank 1 is filling at 20.53 ft
    14:00:00: Tank 2 is filling at 25.58 ft
   
    14:05:00: Balanced after 2 trials
   
    14:10:00: Balanced after 2 trials
   
    14:15:00: Balanced after 2 trials
   
    14:20:00: Balanced after 2 trials
   
    14:25:00: Balanced after 2 trials
   
    14:30:00: Balanced after 2 trials
   
    14:35:00: Balanced after 2 trials
   
    14:40:00: Balanced after 2 trials
   
    14:45:00: Balanced after 2 trials
   
    14:50:00: Balanced after 2 trials
   
    14:55:00: Balanced after 2 trials
   
    15:00:00: Pump 10 changed by timer control
    15:00:00: Balanced after 5 trials
    15:00:00: Reservoir Lake is closed
    15:00:00: Tank 1 is emptying at 21.35 ft
    15:00:00: Pump 10 changed from open to closed
   
    15:05:00: Balanced after 2 trials
   
    15:10:00: Balanced after 2 trials
   
    15:15:00: Balanced after 2 trials
   
    15:20:00: Balanced after 2 trials
   
    15:25:00: Balanced after 2 trials
   
    15:30:00: Balanced after 2 trials
   
    15:35:00: Balanced after 2 trials
   
    15:40:00: Balanced after 2 trials
   
    15:45:00: Balanced after 2 trials
   
    15:50:00: Balanced after 2 trials
   
    15:55:00: Balanced after 2 trials
   
    16:00:00: Balanced after 3 trials
   
    16:05:00: Balanced after 2 trials
   
    16:10:00: Balanced after 2 trials
   
    16:15:00: Balanced after 2 trials
   
    16:20:00: Balanced after 2 trials
   
    16:25:00: Balanced after 2 trials
   
    16:30:00: Balanced after 2 trials
   
    16:35:00: Balanced after 2 trials
   
    16:40:00: Balanced after 2 trials
   
    16:45:00: Balanced after 2 trials
   
    16:50:00: Balanced after 2 trials
   
    16:55:00: Balanced after 2 trials
   
    17:00:00: Balanced after 2 trials
   
    17:05:00: Balanced after 2 trials
   
    17:10:00: Balanced after 2 trials
   
    17:15:00: Balanced after 2 trials
   
    17:20:00: Balanced after 2 trials
   
    17:25:00: Balanced after 2 trials
   
    17:30:00: Balanced after 2 trials
   
    17:35:00: Balanced after 2 trials
   
    17:40:00: Balanced after 2 trials
   
    17:45:00: Balanced after 2 trials
   
    17:50:00: Balanced after 2 trials
   
    17:55:00: Balanced after 2 trials
   
    18:00:00: Balanced after 3 trials
    18:00:00: Tank 2 is emptying at 27.69 ft
   
    18:05:00: Balanced after 1 trials
   
    18:10:00: Balanced after 1 trials
   
    18:15:00: Balanced after 1 trials
   
    18:20:00: Balanced after 1 trials
   
    18:25:00: Balanced after 1 trials
   
    18:30:00: Balanced after 1 trials
   
    18:35:00: Balanced after 1 trials
   
    18:40:00: Balanced after 1 trials
   
    18:45:00: Balanced after 1 trials
   
    18:50:00: Balanced after 1 trials
   
    18:55:00: Balanced after 1 trials
   
    19:00:00: Balanced after 4 trials
    19:00:00: Tank 1 is filling at 18.51 ft
    19:00:00: Tank 2 is filling at 27.33 ft
   
    19:05:00: Balanced after 2 trials
   
    19:10:00: Balanced after 2 trials
   
    19:15:00: Balanced after 2 trials
   
    19:20:00: Balanced after 2 trials
   
    19:25:00: Balanced after 2 trials
   
    19:30:00: Balanced after 2 trials
   
    19:35:00: Balanced after 2 trials
   
    19:40:00: Balanced after 2 trials
   
    19:45:00: Balanced after 2 trials
   
    19:50:00: Balanced after 2 trials
   
    19:55:00: Balanced after 2 trials
   
    20:00:00: Balanced after 4 trials
    20:00:00: Tank 1 is emptying at 19.06 ft
    20:00:00: Tank 2 is emptying at 28.23 ft
   
    20:05:00: Balanced after 2 trials
   
    20:10:00: Balanced after 2 trials
   
    20:15:00: Balanced after 2 trials
   
    20:20:00: Balanced after 2 trials
   
    20:25:00: Balanced after 2 trials
   
    20:30:00: Balanced after 2 trials
   
    20:35:00: Balanced after 1 trials
   
    20:40:00: Balanced after 1 trials
   
    20:45:00: Balanced after 1 trials
   
    20:50:00: Balanced after 1 trials
   
    20:55:00: Balanced after 1 trials
   
    21:00:00: Balanced after 3 trials
   
    21:05:00: Balanced after 2 trials
   
    21:10:00: Balanced after 2 trials
   
    21:15:00: Balanced after 2 trials
   
    21:20:00: Balanced after 2 trials
   
    21:25:00: Balanced after 2 trials
   
    21:30:00: Balanced after 2 trials
   
    21:35:00: Balanced after 2 trials
   
    21:40:00: Balanced after 2 trials
   
    21:40:33: Pump 335 changed by Tank 1 control
    21:40:33: Pipe 330 changed by Tank 1 control
    21:40:33: Balanced after 5 trials
    21:40:33: Tank 3 is filling at 29.44 ft
    21:40:33: Pipe 330 changed from open to closed
    21:40:33: Pump 335 changed from closed to open
   
    21:45:00: Balanced after 2 trials
   
    21:50:00: Balanced after 2 trials
   
    21:55:00: Balanced after 2 trials
   
    22:00:00: Balanced after 3 trials
   
    22:05:00: Balanced after 2 trials
   
    22:10:00: Balanced after 2 trials
   
    22:15:00: Balanced after 2 trials
   
    22:20:00: Balanced after 2 trials
   
    22:25:00: Balanced after 2 trials
   
    22:30:00: Balanced after 2 trials
   
    22:35:00: Balanced after 2 trials
   
    22:40:00: Balanced after 2 trials
   
    22:45:00: Balanced after 2 trials
   
    22:50:00: Balanced after 2 trials
   
    22:55:00: Balanced after 2 trials
   
    23:00:00: Balanced after 3 trials
   
    23:05:00: Balanced after 2 trials
   
    23:10:00: Balanced after 2 trials
   
    23:15:00: Balanced after 2 trials
   
    23:20:00: Balanced after 2 trials
   
    23:25:00: Balanced after 2 trials
   
    23:30:00: Balanced after 2 trials
   
    23:35:00: Balanced after 2 trials
   
    23:40:00: Balanced after 2 trials
   
    23:45:00: Balanced after 2 trials
   
    23:50:00: Balanced after 2 trials
   
    23:55:00: Balanced after 2 trials
   
    24:00:00: Balanced after 3 trials
    24:00:00: Tank 1 is filling at 15.86 ft
   
   
  Node Results at 0:00:00 hrs:
  --------------------------------------------------------
                     Demand      Head  Pressure  Chemical
  Node                  gpm        ft       psi      mg/L
  --------------------------------------------------------
  10                   0.00    146.70     -0.13      0.00
  15                 703.80    118.45     37.46      0.00
  20                   0.00    158.00     12.57      0.00
  35                1566.60    146.16     57.91      0.00
  40                   0.00    145.00      5.68      0.00
  50                   0.00    140.00     10.18      0.00
  60                   0.00    209.02     90.57      0.00
  601                  0.00    302.55    131.09      0.00
  61                   0.00    302.55    131.09      0.00
  101                218.44    146.70     45.36      0.00
  103                153.18    146.66     44.92      0.00
  105                155.68    147.89     51.73      0.00
  107                 62.84    147.88     54.54      0.00
  109                266.11    146.65     54.75      0.00
  111                163.23    147.00     59.36      0.00
  113                 23.01    147.00     62.83      0.00
  115                 59.91    147.88     58.01      0.00
  117                135.37    150.90     59.49      0.00
  119                202.55    157.91     67.55      0.00
  120                  0.00    155.65     67.44      0.00
  121                 47.87    161.29     70.75      0.00
  123                  0.00    165.74     67.05      0.00
  125                 52.44    160.66     64.85      0.00
  127                 20.31    158.81     44.55      0.00
  129                  0.00    158.80     46.71      0.00
  131                 49.16    158.79     66.20      0.00
  139                  6.77    152.38     52.59      0.00
  141                 11.33    147.77     62.30      0.00
  143                  7.13    134.18     60.09      0.00
  145                 31.77    149.40     64.30      0.00
  147                  9.83    150.57     57.23      0.00
  149                 31.13    151.06     58.52      0.00
  151                166.15    155.71     52.95      0.00
  153                 50.80    155.81     38.83      0.00
  157                 59.56    155.49     61.70      0.00
  159                 47.52    152.16     63.33      0.00
  161                 18.17    149.90     63.22      0.00
  163                 10.83    149.44     62.59      0.00
  164                  0.00    149.44     62.59      0.00
  166                  2.99    149.44     65.62      0.00
  167                 16.74    147.57     66.11      0.00
  169                  0.00    147.58     66.11      0.00
  171                 45.24    146.47     65.20      0.00
  173                  0.00    146.45     65.19      0.00
  177                 66.90    146.14     59.86      0.00
  179                  0.00    146.13     59.85      0.00
  181                  0.00    146.17     59.87      0.00
  183                  0.00    146.14     58.56      0.00
  184                  0.00    144.95     55.87      0.00
  185                 29.50    145.58     56.15      0.00
  187                  0.00    146.42     58.03      0.00
  189                124.11    146.69     61.83      0.00
  191                 94.18    146.83     52.79      0.00
  193                 82.01    146.92     55.86      0.00
  195                  0.00    146.98     56.97      0.00
  197                 19.60    146.87     53.67      0.00
  199                137.22    140.97     61.95      0.00
  201                 51.30    140.18     60.70      0.00
  203               4686.59    140.00     59.80      0.00
  204                  0.00    146.13     54.22      0.00
  205                 75.16    140.95     51.97      0.00
  206                  0.00    140.05     60.25      0.00
  207                 79.80    140.21     56.85      0.00
  208                  0.00    139.86     53.67      0.00
  209                  1.00    139.54     61.33      0.00
  211                  9.97    139.43     57.38      0.00
  213                 16.03    139.38     57.36      0.00
  215                106.02    139.24     57.30      0.00
  217                 27.85    139.22     57.72      0.00
  219                 47.52    139.21     58.59      0.00
  225                 26.22    139.22     56.86      0.00
  229                 73.81    139.31     55.81      0.00
  231                 18.95    139.30     58.19      0.00
  237                 17.95    139.38     54.33      0.00
  239                 51.30    139.38     54.76      0.00
  241                  0.00    139.38     54.76      0.00
  243                  4.99    139.38     54.33      0.00
  247                 80.94    139.38     52.60      0.00
  249                  0.00    139.38     52.60      0.00
  251                 27.78    139.39     47.40      0.00
  253                 62.70    139.46     44.83      0.00
  255                 46.45    139.50     48.75      0.00
  257                  0.00    152.74     58.81      0.00
  259                  0.00    152.33     55.17      0.00
  261                  0.00    150.85     65.37      0.00
  263                  0.00    150.70     65.30      0.00
  265                  0.00    148.17     64.20      0.00
  267                  0.00    146.90     54.55      0.00
  269                  0.00    147.01     63.70      0.00
  271                  0.00    146.25     60.77      0.00
  273                  0.00    140.95     57.61      0.00
  275                  0.00    140.21     56.42      0.00
  River           -13148.63    220.00      0.00      0.00  Reservoir
  Lake                 0.00    167.00      0.00      0.00  Reservoir
  1                  588.06    145.00      5.68      0.00  Tank
  2                 -268.60    140.00     10.18      0.00  Tank
  3                 2366.85    158.00     12.57      0.00  Tank
   
   
  Link Results at 0:00:00 hrs:
  ----------------------------------------------
                       Flow  Velocity  Headloss
  Link                  gpm       fps   /1000ft
  ----------------------------------------------
  20               -2366.85      0.10      0.00
  40                -588.06      0.02      0.00
  50                 268.60      0.01      0.00
  60               13148.63      9.32      8.92
  101                  0.00      0.00      0.00
  103                184.90      0.30      0.03
  105               -403.35      1.14      0.47
  107                 55.94      0.16      0.01
  109                 31.72      0.05      0.00
  111               -234.39      0.66      0.17
  112                521.22      1.48      0.76
  113                  8.78      0.02      0.00
  114                133.76      0.85      0.44
  115                 -6.89      0.04      0.00
  116                119.52      0.34      0.05
  117                614.97      1.74      1.03
  119               -721.78      2.05      1.39
  120               1112.39      3.16      3.09
  121               1001.56      2.84      2.54
  122                359.73      2.30      2.75
  123               9707.48      4.41      1.69
  125              13148.63      5.97      2.97
  129               3033.55      2.15      0.68
  131               2765.73      1.96      0.57
  133              -2366.85      2.42      1.04
  135                378.57      0.27      0.01
  137                 49.16      0.08      0.00
  145                329.41      2.10      2.34
  147                322.64      2.06      2.25
  149               -710.93      4.54      9.71
  151               -703.80      4.49      9.53
  153                399.62      1.13      0.46
  155                431.39      1.22      0.53
  159               -441.23      1.25      0.56
  161               -472.36      3.01      4.55
  163               -164.58      0.47      0.09
  169                215.38      1.37      1.06
  171                473.93      1.34      0.64
  173               7918.61      3.59      1.16
  175               7859.05      3.57      1.14
  177               7811.53      3.55      1.13
  179               7556.26      3.43      1.06
  180                  2.99      0.01      0.00
  181                  2.99      0.01      0.00
  183               7357.45      3.34      1.01
  185                -16.74      0.11      0.01
  186                374.83      2.39      2.97
  187               6775.03      3.08      0.87
  189               4815.54      2.19      0.46
  191              -1914.25      1.36      0.29
  193              -1566.60      1.11      0.20
  195                503.42      1.43      0.71
  197                436.52      1.24      0.55
  199               -151.54      0.43      0.08
  201               -588.06      1.67      0.95
  202                565.41      3.61      6.35
  203                220.08      1.40      1.11
  204                565.41      1.60      0.88
  205                374.83      1.06      0.41
  207                371.62      1.05      0.41
  209                149.24      0.95      0.54
  211                565.67      1.60      0.88
  213                225.60      0.64      0.16
  215                235.06      0.67      0.17
  217               -224.55      0.64      0.16
  219               -237.10      0.67      0.18
  221                237.10      1.51      1.27
  223                 95.23      0.27      0.03
  225                114.82      0.33      0.05
  229               4815.54      3.42      1.37
  231               4587.64      3.25      1.25
  233               4686.59      3.32      1.51
  235                 90.68      0.26      0.03
  237                465.73      1.32      0.62
  238                350.88      1.00      0.36
  239                -35.05      0.10      0.01
  240                350.88      1.00      0.36
  241                350.88      1.00      0.36
  243                349.88      0.56      0.09
  245                257.72      0.41      0.05
  247                207.61      0.33      0.03
  249                101.59      0.16      0.01
  251                 47.52      0.10      0.00
  257                 26.22      0.07      0.00
  261                 34.08      0.22      0.03
  263                 18.95      0.05      0.00
  269                 82.19      0.23      0.02
  271                 58.68      0.37      0.10
  273                  5.56      0.02      0.00
  275                -14.07      0.04      0.00
  277                  4.99      0.01      0.00
  281                -19.06      0.08      0.00
  283                -31.68      0.09      0.00
  285                 -1.06      0.00      0.00
  287                -98.93      0.40      0.08
  289                268.60      1.10      0.54
  291                 62.70      0.26      0.04
  293                 60.53      0.39      0.10
  295                -32.74      0.09      0.00
  297                470.55      3.00      4.52
  299                226.11      1.44      1.16
  301                226.11      1.44      1.16
  303                244.44      1.56      1.34
  305                144.41      0.41      0.07
  307                388.86      1.10      0.44
  309                184.99      1.18      0.80
  311                 50.06      0.14      0.01
  313                409.91      1.16      0.49
  315              -2070.02      1.47      0.33
  317                115.20      0.74      0.33
  319                -24.52      0.07      0.00
  321               7542.44      3.42      1.06
  323               -150.26      0.43      0.08
  325                155.77      0.99      0.58
  329              13148.63      5.97      3.01
  330                  0.00      0.00      0.00
  333                 -0.00      0.00      0.00
  10                   0.00      0.00      0.00  Pump
  335              13148.63      0.00    -93.52  Pump
   
   
  Node Results at 0:05:00 hrs:
  --------------------------------------------------------
                     Demand      Head  Pressure  Chemical
  Node                  gpm        ft       psi      mg/L
  --------------------------------------------------------
  10                   0.00    146.74     -0.11      0.00
  15                 703.80    118.51     37.49      0.00
  20                   0.00    158.07     12.60      0.00
  35                1566.60    146.21     57.94      0.00
  40                   0.00    145.07      5.71      0.00
  50                   0.00    139.91     10.14      0.00
  60                   0.00    209.03     90.57      0.00
  601                  0.00    302.57    131.10      0.00
  61                   0.00    302.57    131.10      0.00
  101                218.44    146.74     45.39      0.00
  103                153.18    146.71     44.94      0.00
  105                155.68    147.94     51.75      0.00
  107                 62.84    147.93     54.56      0.00
  109                266.11    146.70     54.77      0.00
  111                163.23    147.05     59.38      0.00
  113                 23.01    147.05     62.85      0.00
  115                 59.91    147.93     58.03      0.00
  117                135.37    150.95     59.51      0.00
  119                202.55    157.96     67.58      0.00
  120                  0.00    155.71     67.47      0.00
  121                 47.87    161.35     70.78      0.00
  123                  0.00    165.80     67.07      0.00
  125                 52.44    160.72     64.88      0.00
  127                 20.31    158.89     44.58      0.00
  129                  0.00    158.87     46.74      0.00
  131                 49.16    158.86     66.23      0.00
  139                  6.77    152.44     52.62      0.00
  141                 11.33    147.83     62.32      0.00
  143                  7.13    134.24     60.12      0.00
  145                 31.77    149.46     64.33      0.00
  147                  9.83    150.63     57.25      0.00
  149                 31.13    151.12     58.55      0.00
  151                166.15    155.77     52.98      0.00
  153                 50.80    155.87     38.85      0.00
  157                 59.56    155.55     61.72      0.00
  159                 47.52    152.22     63.36      0.00
  161                 18.17    149.95     63.24      0.00
  163                 10.83    149.49     62.61      0.00
  164                  0.00    149.49     62.61      0.00
  166                  2.99    149.49     65.64      0.00
  167                 16.74    147.62     66.13      0.00
  169                  0.00    147.62     66.13      0.00
  171                 45.24    146.52     65.22      0.00
  173                  0.00    146.49     65.21      0.00
  177                 66.90    146.19     59.88      0.00
  179                  0.00    146.18     59.87      0.00
  181                  0.00    146.21     59.89      0.00
  183                  0.00    146.19     58.58      0.00
  184                  0.00    144.99     55.89      0.00
  185                 29.50    145.62     56.17      0.00
  187                  0.00    146.47     58.05      0.00
  189                124.11    146.74     61.85      0.00
  191                 94.18    146.88     52.81      0.00
  193                 82.01    146.96     55.88      0.00
  195                  0.00    147.03     56.99      0.00
  197                 19.60    146.92     53.69      0.00
  199                137.22    141.00     61.96      0.00
  201                 51.30    140.21     60.71      0.00
  203               4686.59    140.02     59.81      0.00
  204                  0.00    146.17     54.24      0.00
  205                 75.16    140.98     51.99      0.00
  206                  0.00    140.06     60.25      0.00
  207                 79.80    140.23     56.86      0.00
  208                  0.00    139.86     53.67      0.00
  209                  1.00    139.52     61.32      0.00
  211                  9.97    139.40     57.37      0.00
  213                 16.03    139.35     57.35      0.00
  215                106.02    139.21     57.29      0.00
  217                 27.85    139.19     57.71      0.00
  219                 47.52    139.18     58.58      0.00
  225                 26.22    139.19     56.84      0.00
  229                 73.81    139.27     55.80      0.00
  231                 18.95    139.27     58.18      0.00
  237                 17.95    139.34     54.31      0.00
  239                 51.30    139.34     54.74      0.00
  241                  0.00    139.34     54.74      0.00
  243                  4.99    139.34     54.31      0.00
  247                 80.94    139.34     52.58      0.00
  249                  0.00    139.34     52.58      0.00
  251                 27.78    139.35     47.38      0.00
  253                 62.70    139.41     44.81      0.00
  255                 46.45    139.45     48.72      0.00
  257                  0.00    152.79     58.84      0.00
  259                  0.00    152.38     55.19      0.00
  261                  0.00    150.91     65.39      0.00
  263                  0.00    150.75     65.32      0.00
  265                  0.00    148.22     64.22      0.00
  267                  0.00    146.95     54.58      0.00
  269                  0.00    147.05     63.72      0.00
  271                  0.00    146.30     60.79      0.00
  273                  0.00    140.97     57.62      0.00
  275                  0.00    140.23     56.43      0.00
  River           -13146.65    220.00      0.00      0.00  Reservoir
  Lake                 0.00    167.00      0.00      0.00  Reservoir
  1                  581.99    145.07      5.71      0.00  Tank
  2                 -257.76    139.91     10.14      0.00  Tank
  3                 2360.11    158.07     12.60      0.00  Tank
   
   
  Link Results at 0:05:00 hrs:
  ----------------------------------------------
                       Flow  Velocity  Headloss
  Link                  gpm       fps   /1000ft
  ----------------------------------------------
  20               -2360.11      0.10      0.00
  40                -581.99      0.02      0.00
  50                 257.76      0.01      0.00
  60               13146.65      9.32      8.91
  101                  0.00      0.00      0.00
  103                185.05      0.30      0.03
  105               -403.49      1.14      0.47
  107                 56.06      0.16      0.01
  109                 31.87      0.05      0.00
  111               -234.24      0.66      0.17
  112                521.57      1.48      0.76
  113                  9.05      0.03      0.00
  114                133.85      0.85      0.44
  115                 -6.78      0.04      0.00
  116                119.89      0.34      0.05
  117                615.22      1.75      1.03
  119               -722.11      2.05      1.39
  120               1112.82      3.16      3.09
  121               1001.96      2.84      2.54
  122                359.88      2.30      2.75
  123               9711.88      4.41      1.69
  125              13146.65      5.97      2.97
  129               3027.01      2.15      0.67
  131               2759.11      1.96      0.57
  133              -2360.11      2.41      1.03
  135                378.70      0.27      0.01
  137                 49.16      0.08      0.00
  145                329.53      2.10      2.34
  147                322.76      2.06      2.25
  149               -710.93      4.54      9.71
  151               -703.80      4.49      9.53
  153                399.50      1.13      0.46
  155                431.27      1.22      0.53
  159               -441.10      1.25      0.56
  161               -472.23      3.01      4.55
  163               -164.66      0.47      0.09
  169                215.46      1.38      1.06
  171                473.72      1.34      0.64
  173               7922.79      3.60      1.16
  175               7863.23      3.57      1.15
  177               7815.71      3.55      1.13
  179               7560.39      3.43      1.06
  180                  2.99      0.01      0.00
  181                  2.99      0.01      0.00
  183               7361.59      3.34      1.01
  185                -16.74      0.11      0.01
  186                375.40      2.40      2.98
  187               6779.31      3.08      0.87
  189               4825.08      2.19      0.46
  191              -1908.98      1.35      0.29
  193              -1566.60      1.11      0.20
  195                498.20      1.41      0.70
  197                431.30      1.22      0.53
  199               -150.69      0.43      0.08
  201               -581.99      1.65      0.93
  202                566.71      3.62      6.38
  203                220.80      1.41      1.11
  204                566.71      1.61      0.89
  205                375.40      1.06      0.41
  207                371.49      1.05      0.41
  209                149.45      0.95      0.54
  211                565.54      1.60      0.88
  213                225.95      0.64      0.16
  215                235.32      0.67      0.17
  217               -224.69      0.64      0.16
  219               -237.16      0.67      0.18
  221                237.16      1.51      1.27
  223                 95.44      0.27      0.03
  225                115.04      0.33      0.05
  229               4825.08      3.42      1.37
  231               4595.76      3.26      1.26
  233               4686.59      3.32      1.51
  235                 92.11      0.26      0.03
  237                468.10      1.33      0.62
  238                361.72      1.03      0.39
  239                -26.59      0.08      0.00
  240                361.72      1.03      0.39
  241                361.72      1.03      0.39
  243                360.72      0.58      0.09
  245                259.33      0.41      0.05
  247                207.61      0.33      0.03
  249                101.59      0.16      0.01
  251                 47.52      0.10      0.00
  257                 26.22      0.07      0.00
  261                 35.69      0.23      0.04
  263                 18.95      0.05      0.00
  269                 91.42      0.26      0.03
  271                 57.07      0.36      0.09
  273                 16.40      0.05      0.00
  275                -10.01      0.03      0.00
  277                  4.99      0.01      0.00
  281                -15.00      0.06      0.00
  283                -24.90      0.07      0.00
  285                 -3.85      0.01      0.00
  287                -92.09      0.38      0.07
  289                257.76      1.05      0.50
  291                 62.70      0.26      0.04
  293                 56.53      0.36      0.09
  295                -28.74      0.08      0.00
  297                470.74      3.00      4.53
  299                226.20      1.44      1.16
  301                226.20      1.44      1.16
  303                244.54      1.56      1.35
  305                144.49      0.41      0.07
  307                389.02      1.10      0.44
  309                184.97      1.18      0.80
  311                 50.35      0.14      0.01
  313                409.73      1.16      0.49
  315              -2064.80      1.46      0.33
  317                115.55      0.74      0.34
  319                -23.44      0.07      0.00
  321               7546.57      3.43      1.06
  323               -142.13      0.40      0.07
  325                155.81      0.99      0.58
  329              13146.65      5.97      3.01
  330                  0.00      0.00      0.00
  333                 -0.00      0.00      0.00
  10                   0.00      0.00      0.00  Pump
  335              13146.65      0.00    -93.54  Pump
   
   
  Node Results at 0:10:00 hrs:
  --------------------------------------------------------
                     Demand      Head  Pressure  Chemical
  Node                  gpm        ft       psi      mg/L
  --------------------------------------------------------
  10                   0.00    146.79     -0.09      0.00
  15                 703.80    118.58     37.51      0.00
  20                   0.00    158.15     12.63      0.00
  35                1566.60    146.25     57.96      0.00
  40                   0.00    145.14      5.74      0.00
  50                   0.00    139.82     10.10      0.00
  60                   0.00    209.03     90.57      0.00
  601                  0.00    302.59    131.11      0.00
  61                   0.00    302.59    131.11      0.00
  101                218.44    146.79     45.41      0.00
  103                153.18    146.76     44.96      0.00
  105                155.68    147.99     51.78      0.00
  107                 62.84    147.97     54.58      0.00
  109                266.11    146.75     54.79      0.00
  111                163.23    147.10     59.40      0.00
  113                 23.01    147.10     62.87      0.00
  115                 59.91    147.98     58.05      0.00
  117                135.37    151.00     59.54      0.00
  119                202.55    158.02     67.60      0.00
  120                  0.00    155.76     67.49      0.00
  121                 47.87    161.41     70.81      0.00
  123                  0.00    165.86     67.10      0.00
  125                 52.44    160.79     64.90      0.00
  127                 20.31    158.96     44.61      0.00
  129                  0.00    158.94     46.77      0.00
  131                 49.16    158.93     66.26      0.00
  139                  6.77    152.51     52.65      0.00
  141                 11.33    147.90     62.35      0.00
  143                  7.13    134.30     60.14      0.00
  145                 31.77    149.52     64.35      0.00
  147                  9.83    150.69     57.28      0.00
  149                 31.13    151.18     58.58      0.00
  151                166.15    155.82     53.00      0.00
  153                 50.80    155.93     38.88      0.00
  157                 59.56    155.60     61.75      0.00
  159                 47.52    152.27     63.38      0.00
  161                 18.17    150.00     63.26      0.00
  163                 10.83    149.54     62.63      0.00
  164                  0.00    149.54     62.63      0.00
  166                  2.99    149.54     65.66      0.00
  167                 16.74    147.67     66.15      0.00
  169                  0.00    147.67     66.15      0.00
  171                 45.24    146.56     65.24      0.00
  173                  0.00    146.54     65.23      0.00
  177                 66.90    146.24     59.90      0.00
  179                  0.00    146.22     59.89      0.00
  181                  0.00    146.26     59.91      0.00
  183                  0.00    146.24     58.60      0.00
  184                  0.00    145.03     55.91      0.00
  185                 29.50    145.67     56.19      0.00
  187                  0.00    146.52     58.07      0.00
  189                124.11    146.79     61.87      0.00
  191                 94.18    146.93     52.83      0.00
  193                 82.01    147.01     55.90      0.00
  195                  0.00    147.08     57.01      0.00
  197                 19.60    146.97     53.71      0.00
  199                137.22    141.02     61.97      0.00
  201                 51.30    140.23     60.72      0.00
  203               4686.59    140.05     59.82      0.00
  204                  0.00    146.22     54.26      0.00
  205                 75.16    141.00     52.00      0.00
  206                  0.00    140.07     60.26      0.00
  207                 79.80    140.25     56.87      0.00
  208                  0.00    139.86     53.67      0.00
  209                  1.00    139.50     61.31      0.00
  211                  9.97    139.38     57.36      0.00
  213                 16.03    139.33     57.34      0.00
  215                106.02    139.18     57.27      0.00
  217                 27.85    139.17     57.70      0.00
  219                 47.52    139.16     58.56      0.00
  225                 26.22    139.16     56.83      0.00
  229                 73.81    139.24     55.78      0.00
  231                 18.95    139.23     58.16      0.00
  237                 17.95    139.30     54.29      0.00
  239                 51.30    139.30     54.73      0.00
  241                  0.00    139.30     54.73      0.00
  243                  4.99    139.30     54.29      0.00
  247                 80.94    139.30     52.56      0.00
  249                  0.00    139.30     52.56      0.00
  251                 27.78    139.31     47.36      0.00
  253                 62.70    139.35     44.78      0.00
  255                 46.45    139.39     48.70      0.00
  257                  0.00    152.84     58.86      0.00
  259                  0.00    152.44     55.22      0.00
  261                  0.00    150.96     65.41      0.00
  263                  0.00    150.80     65.34      0.00
  265                  0.00    148.27     64.24      0.00
  267                  0.00    147.00     54.60      0.00
  269                  0.00    147.10     63.74      0.00
  271                  0.00    146.35     60.81      0.00
  273                  0.00    141.00     57.63      0.00
  275                  0.00    140.25     56.44      0.00
  River           -13144.67    220.00      0.00      0.00  Reservoir
  Lake                 0.00    167.00      0.00      0.00  Reservoir
  1                  576.09    145.14      5.74      0.00  Tank
  2                 -247.17    139.82     10.10      0.00  Tank
  3                 2353.43    158.15     12.63      0.00  Tank
   
   
  Link Results at 0:10:00 hrs:
  ----------------------------------------------
                       Flow  Velocity  Headloss
  Link                  gpm       fps   /1000ft
  ----------------------------------------------
  20               -2353.43      0.10      0.00
  40                -576.09      0.02      0.00
  50                 247.17      0.01      0.00
  60               13144.67      9.32      8.91
  101                  0.00      0.00      0.00
  103                185.19      0.30      0.03
  105               -403.63      1.15      0.47
  107                 56.17      0.16      0.01
  109                 32.01      0.05      0.00
  111               -234.10      0.66      0.17
  112                521.91      1.48      0.76
  113                  9.33      0.03      0.00
  114                133.94      0.85      0.44
  115                 -6.66      0.04      0.00
  116                120.25      0.34      0.05
  117                615.48      1.75      1.03
  119               -722.43      2.05      1.39
  120               1113.24      3.16      3.09
  121               1002.35      2.84      2.55
  122                360.03      2.30      2.75
  123               9716.23      4.41      1.69
  125              13144.67      5.97      2.97
  129               3020.54      2.14      0.67
  131               2752.55      1.95      0.56
  133              -2353.43      2.40      1.03
  135                378.82      0.27      0.01
  137                 49.16      0.08      0.00
  145                329.66      2.10      2.34
  147                322.88      2.06      2.25
  149               -710.93      4.54      9.71
  151               -703.80      4.49      9.53
  153                399.38      1.13      0.46
  155                431.15      1.22      0.53
  159               -440.98      1.25      0.56
  161               -472.11      3.01      4.55
  163               -164.75      0.47      0.09
  169                215.54      1.38      1.06
  171                473.52      1.34      0.63
  173               7926.91      3.60      1.16
  175               7867.36      3.57      1.15
  177               7819.84      3.55      1.13
  179               7564.46      3.43      1.07
  180                  2.99      0.01      0.00
  181                  2.99      0.01      0.00
  183               7365.68      3.34      1.01
  185                -16.74      0.11      0.01
  186                375.96      2.40      2.98
  187               6783.52      3.08      0.87
  189               4834.41      2.19      0.47
  191              -1903.86      1.35      0.29
  193              -1566.60      1.11      0.20
  195                493.12      1.40      0.68
  197                426.23      1.21      0.52
  199               -149.87      0.43      0.08
  201               -576.09      1.63      0.91
  202                567.97      3.63      6.41
  203                221.50      1.41      1.12
  204                567.97      1.61      0.89
  205                375.96      1.07      0.41
  207                371.37      1.05      0.40
  209                149.66      0.96      0.54
  211                565.42      1.60      0.88
  213                226.30      0.64      0.16
  215                235.58      0.67      0.17
  217               -224.83      0.64      0.16
  219               -237.21      0.67      0.18
  221                237.21      1.51      1.27
  223                 95.66      0.27      0.03
  225                115.25      0.33      0.05
  229               4834.41      3.43      1.38
  231               4603.88      3.27      1.26
  233               4686.59      3.32      1.51
  235                 93.32      0.26      0.03
  237                470.23      1.33      0.63
  238                372.31      1.06      0.41
  239                -18.12      0.05      0.00
  240                372.31      1.06      0.41
  241                372.31      1.06      0.41
  243                371.31      0.59      0.10
  245                261.00      0.42      0.05
  247                207.61      0.33      0.03
  249                101.59      0.16      0.01
  251                 47.52      0.10      0.00
  257                 26.22      0.07      0.00
  261                 37.36      0.24      0.04
  263                 18.95      0.05      0.00
  269                100.34      0.28      0.04
  271                 55.40      0.35      0.09
  273                 26.99      0.08      0.00
  275                 -6.03      0.02      0.00
  277                  4.99      0.01      0.00
  281                -11.02      0.05      0.00
  283                -18.28      0.05      0.00
  285                 -6.55      0.02      0.00
  287                -85.41      0.35      0.06
  289                247.17      1.01      0.46
  291                 62.70      0.26      0.04
  293                 52.61      0.34      0.08
  295                -24.83      0.07      0.00
  297                470.92      3.01      4.53
  299                226.29      1.44      1.17
  301                226.29      1.44      1.17
  303                244.63      1.56      1.35
  305                144.56      0.41      0.07
  307                389.19      1.10      0.44
  309                184.95      1.18      0.80
  311                 50.63      0.14      0.01
  313                409.56      1.16      0.49
  315              -2059.72      1.46      0.33
  317                115.90      0.74      0.34
  319                -22.58      0.06      0.00
  321               7550.63      3.43      1.06
  323               -134.01      0.38      0.06
  325                155.86      0.99      0.58
  329              13144.67      5.97      3.01
  330                  0.00      0.00      0.00
  333                 -0.00      0.00      0.00
  10                   0.00      0.00      0.00  Pump
  335              13144.67      0.00    -93.56  Pump
   
   
  Node Results at 0:15:00 hrs:
  --------------------------------------------------------
                     Demand      Head  Pressure  Chemical
  Node                  gpm        ft       psi      mg/L
  --------------------------------------------------------
  10                   0.00    146.84     -0.07      0.00
  15                 703.80    118.64     37.54      0.00
  20                   0.00    158.22     12.66      0.00
  35                1566.60    146.30     57.98      0.00
  40                   0.00    145.21      5.77      0.00
  50                   0.00    139.74     10.07      0.00
  60                   0.00    209.03     90.57      0.00
  601                  0.00    302.61    131.12      0.00
  61                   0.00    302.61    131.12      0.00
  101                218.44    146.84     45.43      0.00
  103                153.18    146.81     44.98      0.00
  105                155.68    148.04     51.80      0.00
  107                 62.84    148.02     54.61      0.00
  109                266.11    146.80     54.81      0.00
  111                163.23    147.14     59.42      0.00
  113                 23.01    147.14     62.89      0.00
  115                 59.91    148.03     58.07      0.00
  117                135.37    151.06     59.56      0.00
  119                202.55    158.08     67.63      0.00
  120                  0.00    155.82     67.52      0.00
  121                 47.87    161.47     70.83      0.00
  123                  0.00    165.92     67.13      0.00
  125                 52.44    160.85     64.93      0.00
  127                 20.31    159.03     44.64      0.00
  129                  0.00    159.01     46.80      0.00
  131                 49.16    159.00     66.29      0.00
  139                  6.77    152.58     52.68      0.00
  141                 11.33    147.96     62.38      0.00
  143                  7.13    134.36     60.17      0.00
  145                 31.77    149.58     64.38      0.00
  147                  9.83    150.76     57.31      0.00
  149                 31.13    151.25     58.60      0.00
  151                166.15    155.88     53.03      0.00
  153                 50.80    155.99     38.91      0.00
  157                 59.56    155.66     61.77      0.00
  159                 47.52    152.32     63.40      0.00
  161                 18.17    150.05     63.28      0.00
  163                 10.83    149.59     62.65      0.00
  164                  0.00    149.59     62.65      0.00
  166                  2.99    149.59     65.68      0.00
  167                 16.74    147.72     66.17      0.00
  169                  0.00    147.72     66.17      0.00
  171                 45.24    146.61     65.26      0.00
  173                  0.00    146.59     65.25      0.00
  177                 66.90    146.29     59.92      0.00
  179                  0.00    146.27     59.91      0.00
  181                  0.00    146.31     59.93      0.00
  183                  0.00    146.29     58.62      0.00
  184                  0.00    145.07     55.93      0.00
  185                 29.50    145.71     56.20      0.00
  187                  0.00    146.56     58.09      0.00
  189                124.11    146.83     61.89      0.00
  191                 94.18    146.98     52.85      0.00
  193                 82.01    147.06     55.92      0.00
  195                  0.00    147.12     57.03      0.00
  197                 19.60    147.02     53.74      0.00
  199                137.22    141.05     61.98      0.00
  201                 51.30    140.25     60.73      0.00
  203               4686.59    140.07     59.83      0.00
  204                  0.00    146.26     54.28      0.00
  205                 75.16    141.03     52.01      0.00
  206                  0.00    140.08     60.26      0.00
  207                 79.80    140.27     56.88      0.00
  208                  0.00    139.86     53.67      0.00
  209                  1.00    139.48     61.30      0.00
  211                  9.97    139.35     57.35      0.00
  213                 16.03    139.30     57.33      0.00
  215                106.02    139.16     57.26      0.00
  217                 27.85    139.14     57.69      0.00
  219                 47.52    139.13     58.55      0.00
  225                 26.22    139.14     56.82      0.00
  229                 73.81    139.20     55.77      0.00
  231                 18.95    139.20     58.15      0.00
  237                 17.95    139.27     54.28      0.00
  239                 51.30    139.26     54.71      0.00
  241                  0.00    139.26     54.71      0.00
  243                  4.99    139.26     54.28      0.00
  247                 80.94    139.26     52.54      0.00
  249                  0.00    139.26     52.54      0.00
  251                 27.78    139.27     47.35      0.00
  253                 62.70    139.30     44.76      0.00
  255                 46.45    139.34     48.68      0.00
  257                  0.00    152.90     58.88      0.00
  259                  0.00    152.49     55.24      0.00
  261                  0.00    151.01     65.43      0.00
  263                  0.00    150.86     65.37      0.00
  265                  0.00    148.32     64.27      0.00
  267                  0.00    147.05     54.62      0.00
  269                  0.00    147.15     63.76      0.00
  271                  0.00    146.39     60.83      0.00
  273                  0.00    141.03     57.64      0.00
  275                  0.00    140.27     56.45      0.00
  River           -13142.69    220.00      0.00      0.00  Reservoir
  Lake                 0.00    167.00      0.00      0.00  Reservoir
  1                  570.37    145.21      5.77      0.00  Tank
  2                 -236.81    139.74     10.07      0.00  Tank
  3                 2346.81    158.22     12.66      0.00  Tank
   
   
  Link Results at 0:15:00 hrs:
  ----------------------------------------------
                       Flow  Velocity  Headloss
  Link                  gpm       fps   /1000ft
  ----------------------------------------------
  20               -2346.81      0.10      0.00
  40                -570.37      0.02      0.00
  50                 236.81      0.01      0.00
  60               13142.69      9.32      8.91
  101                  0.00      0.00      0.00
  103                185.33      0.30      0.03
  105               -403.77      1.15      0.47
  107                 56.28      0.16      0.01
  109                 32.15      0.05      0.00
  111               -233.96      0.66      0.17
  112                522.25      1.48      0.76
  113                  9.59      0.03      0.00
  114                134.03      0.86      0.44
  115                 -6.55      0.04      0.00
  116                120.61      0.34      0.05
  117                615.73      1.75      1.03
  119               -722.75      2.05      1.39
  120               1113.66      3.16      3.09
  121               1002.74      2.84      2.55
  122                360.18      2.30      2.76
  123               9720.51      4.41      1.70
  125              13142.69      5.97      2.96
  129               3014.12      2.14      0.67
  131               2746.06      1.95      0.56
  133              -2346.81      2.40      1.02
  135                378.94      0.27      0.01
  137                 49.16      0.08      0.00
  145                329.78      2.10      2.34
  147                323.00      2.06      2.25
  149               -710.93      4.54      9.71
  151               -703.80      4.49      9.53
  153                399.26      1.13      0.46
  155                431.03      1.22      0.53
  159               -440.86      1.25      0.56
  161               -471.99      3.01      4.55
  163               -164.83      0.47      0.09
  169                215.62      1.38      1.07
  171                473.32      1.34      0.63
  173               7930.98      3.60      1.16
  175               7871.43      3.57      1.15
  177               7823.91      3.55      1.13
  179               7568.47      3.44      1.07
  180                  2.99      0.01      0.00
  181                  2.99      0.01      0.00
  183               7369.72      3.35      1.02
  185                -16.74      0.11      0.01
  186                376.51      2.40      2.99
  187               6787.67      3.08      0.87
  189               4843.55      2.20      0.47
  191              -1898.88      1.35      0.28
  193              -1566.60      1.11      0.20
  195                488.18      1.38      0.67
  197                421.29      1.20      0.51
  199               -149.08      0.42      0.07
  201               -570.37      1.62      0.90
  202                569.19      3.63      6.43
  203                222.19      1.42      1.13
  204                569.19      1.61      0.89
  205                376.51      1.07      0.42
  207                371.27      1.05      0.40
  209                149.87      0.96      0.54
  211                565.31      1.60      0.88
  213                226.64      0.64      0.16
  215                235.84      0.67      0.17
  217               -224.96      0.64      0.16
  219               -237.27      0.67      0.18
  221                237.27      1.51      1.27
  223                 95.87      0.27      0.03
  225                115.46      0.33      0.05
  229               4843.55      3.44      1.38
  231               4612.02      3.27      1.26
  233               4686.59      3.32      1.51
  235                 94.32      0.27      0.03
  237                472.11      1.34      0.63
  238                382.67      1.09      0.43
  239                 -9.63      0.03      0.00
  240                382.67      1.09      0.43
  241                382.67      1.09      0.43
  243                381.67      0.61      0.10
  245                262.71      0.42      0.05
  247                207.61      0.33      0.03
  249                101.59      0.16      0.01
  251                 47.52      0.10      0.00
  257                 26.22      0.07      0.00
  261                 39.07      0.25      0.05
  263                 18.95      0.05      0.00
  269                109.00      0.31      0.04
  271                 53.69      0.34      0.08
  273                 37.35      0.11      0.01
  275                 -2.13      0.01      0.00
  277                  4.99      0.01      0.00
  281                 -7.12      0.03      0.00
  283                -11.82      0.03      0.00
  285                 -9.16      0.03      0.00
  287                -78.89      0.32      0.06
  289                236.81      0.97      0.43
  291                 62.70      0.26      0.04
  293                 48.77      0.31      0.07
  295                -20.99      0.06      0.00
  297                471.10      3.01      4.53
  299                226.38      1.44      1.17
  301                226.38      1.44      1.17
  303                244.73      1.56      1.35
  305                144.62      0.41      0.07
  307                389.35      1.10      0.44
  309                184.93      1.18      0.80
  311                 50.92      0.14      0.01
  313                409.40      1.16      0.48
  315              -2054.78      1.46      0.33
  317                116.24      0.74      0.34
  319                -21.92      0.06      0.00
  321               7554.65      3.43      1.06
  323               -125.87      0.36      0.05
  325                155.90      1.00      0.58
  329              13142.69      5.97      3.00
  330                  0.00      0.00      0.00
  333                 -0.00      0.00      0.00
  10                   0.00      0.00      0.00  Pump
  335              13142.69      0.00    -93.58  Pump
   
   
  Node Results at 0:20:00 hrs:
  --------------------------------------------------------
                     Demand      Head  Pressure  Chemical
  Node                  gpm        ft       psi      mg/L
  --------------------------------------------------------
  10                   0.00    146.89     -0.05      0.00
  15                 703.80    118.70     37.57      0.00
  20                   0.00    158.30     12.69      0.00
  35                1566.60    146.35     58.00      0.00
  40                   0.00    145.27      5.79      0.00
  50                   0.00    139.66     10.03      0.00
  60                   0.00    209.04     90.58      0.00
  601                  0.00    302.63    131.13      0.00
  61                   0.00    302.63    131.13      0.00
  101                218.44    146.89     45.45      0.00
  103                153.18    146.85     45.00      0.00
  105                155.68    148.09     51.82      0.00
  107                 62.84    148.07     54.63      0.00
  109                266.11    146.85     54.83      0.00
  111                163.23    147.19     59.45      0.00
  113                 23.01    147.19     62.91      0.00
  115                 59.91    148.08     58.10      0.00
  117                135.37    151.11     59.58      0.00
  119                202.55    158.14     67.65      0.00
  120                  0.00    155.88     67.54      0.00
  121                 47.87    161.53     70.86      0.00
  123                  0.00    165.98     67.15      0.00
  125                 52.44    160.91     64.96      0.00
  127                 20.31    159.10     44.67      0.00
  129                  0.00    159.08     46.83      0.00
  131                 49.16    159.07     66.32      0.00
  139                  6.77    152.64     52.71      0.00
  141                 11.33    148.02     62.40      0.00
  143                  7.13    134.43     60.20      0.00
  145                 31.77    149.64     64.41      0.00
  147                  9.83    150.82     57.33      0.00
  149                 31.13    151.31     58.63      0.00
  151                166.15    155.94     53.05      0.00
  153                 50.80    156.05     38.93      0.00
  157                 59.56    155.71     61.79      0.00
  159                 47.52    152.37     63.42      0.00
  161                 18.17    150.10     63.30      0.00
  163                 10.83    149.64     62.67      0.00
  164                  0.00    149.64     62.67      0.00
  166                  2.99    149.64     65.71      0.00
  167                 16.74    147.76     66.19      0.00
  169                  0.00    147.76     66.19      0.00
  171                 45.24    146.65     65.28      0.00
  173                  0.00    146.63     65.27      0.00
  177                 66.90    146.33     59.94      0.00
  179                  0.00    146.32     59.93      0.00
  181                  0.00    146.35     59.95      0.00
  183                  0.00    146.34     58.64      0.00
  184                  0.00    145.11     55.94      0.00
  185                 29.50    145.76     56.22      0.00
  187                  0.00    146.61     58.11      0.00
  189                124.11    146.88     61.91      0.00
  191                 94.18    147.03     52.87      0.00
  193                 82.01    147.11     55.94      0.00
  195                  0.00    147.17     57.05      0.00
  197                 19.60    147.06     53.76      0.00
  199                137.22    141.08     61.99      0.00
  201                 51.30    140.28     60.74      0.00
  203               4686.59    140.10     59.84      0.00
  204                  0.00    146.31     54.30      0.00
  205                 75.16    141.05     52.02      0.00
  206                  0.00    140.09     60.27      0.00
  207                 79.80    140.29     56.89      0.00
  208                  0.00    139.86     53.67      0.00
  209                  1.00    139.46     61.30      0.00
  211                  9.97    139.33     57.34      0.00
  213                 16.03    139.28     57.32      0.00
  215                106.02    139.13     57.25      0.00
  217                 27.85    139.12     57.68      0.00
  219                 47.52    139.11     58.54      0.00
  225                 26.22    139.11     56.81      0.00
  229                 73.81    139.17     55.75      0.00
  231                 18.95    139.17     58.13      0.00
  237                 17.95    139.23     54.26      0.00
  239                 51.30    139.22     54.69      0.00
  241                  0.00    139.22     54.69      0.00
  243                  4.99    139.22     54.26      0.00
  247                 80.94    139.23     52.53      0.00
  249                  0.00    139.23     52.53      0.00
  251                 27.78    139.23     47.33      0.00
  253                 62.70    139.25     44.74      0.00
  255                 46.45    139.29     48.66      0.00
  257                  0.00    152.95     58.91      0.00
  259                  0.00    152.54     55.26      0.00
  261                  0.00    151.06     65.46      0.00
  263                  0.00    150.91     65.39      0.00
  265                  0.00    148.36     64.29      0.00
  267                  0.00    147.10     54.64      0.00
  269                  0.00    147.19     63.78      0.00
  271                  0.00    146.44     60.85      0.00
  273                  0.00    141.05     57.65      0.00
  275                  0.00    140.29     56.46      0.00
  River           -13140.71    220.00      0.00      0.00  Reservoir
  Lake                 0.00    167.00      0.00      0.00  Reservoir
  1                  564.80    145.27      5.79      0.00  Tank
  2                 -226.66    139.66     10.03      0.00  Tank
  3                 2340.25    158.30     12.69      0.00  Tank
   
   
  Link Results at 0:20:00 hrs:
  ----------------------------------------------
                       Flow  Velocity  Headloss
  Link                  gpm       fps   /1000ft
  ----------------------------------------------
  20               -2340.25      0.10      0.00
  40                -564.80      0.02      0.00
  50                 226.66      0.01      0.00
  60               13140.71      9.32      8.91
  101                  0.00      0.00      0.00
  103                185.47      0.30      0.03
  105               -403.91      1.15      0.47
  107                 56.39      0.16      0.01
  109                 32.29      0.05      0.00
  111               -233.82      0.66      0.17
  112                522.58      1.48      0.76
  113                  9.86      0.03      0.00
  114                134.12      0.86      0.44
  115                 -6.44      0.04      0.00
  116                120.97      0.34      0.05
  117                615.98      1.75      1.03
  119               -723.06      2.05      1.39
  120               1114.08      3.16      3.10
  121               1003.12      2.85      2.55
  122                360.33      2.30      2.76
  123               9724.75      4.41      1.70
  125              13140.71      5.96      2.96
  129               3007.76      2.13      0.67
  131               2739.62      1.94      0.56
  133              -2340.25      2.39      1.02
  135                379.06      0.27      0.01
  137                 49.16      0.08      0.00
  145                329.89      2.11      2.34
  147                323.12      2.06      2.25
  149               -710.93      4.54      9.71
  151               -703.80      4.49      9.53
  153                399.14      1.13      0.46
  155                430.91      1.22      0.53
  159               -440.74      1.25      0.56
  161               -471.87      3.01      4.55
  163               -164.91      0.47      0.09
  169                215.70      1.38      1.07
  171                473.12      1.34      0.63
  173               7935.01      3.60      1.16
  175               7875.45      3.57      1.15
  177               7827.93      3.55      1.14
  179               7572.44      3.44      1.07
  180                  2.99      0.01      0.00
  181                  2.99      0.01      0.00
  183               7373.71      3.35      1.02
  185                -16.74      0.11      0.01
  186                377.04      2.41      3.00
  187               6791.77      3.08      0.87
  189               4852.51      2.20      0.47
  191              -1894.02      1.34      0.28
  193              -1566.60      1.11      0.20
  195                483.37      1.37      0.66
  197                416.48      1.18      0.50
  199               -148.33      0.42      0.07
  201               -564.80      1.60      0.88
  202                570.39      3.64      6.46
  203                222.84      1.42      1.13
  204                570.39      1.62      0.90
  205                377.04      1.07      0.42
  207                371.17      1.05      0.40
  209                150.07      0.96      0.54
  211                565.20      1.60      0.88
  213                226.97      0.64      0.16
  215                236.10      0.67      0.17
  217               -225.09      0.64      0.16
  219               -237.32      0.67      0.18
  221                237.32      1.51      1.27
  223                 96.07      0.27      0.03
  225                115.67      0.33      0.05
  229               4852.51      3.44      1.39
  231               4620.21      3.28      1.27
  233               4686.59      3.32      1.51
  235                 95.08      0.27      0.03
  237                473.72      1.34      0.64
  238                392.83      1.11      0.45
  239                 -1.10      0.00      0.00
  240                392.83      1.11      0.45
  241                392.83      1.11      0.45
  243                391.82      0.63      0.11
  245                264.45      0.42      0.05
  247                207.61      0.33      0.03
  249                101.59      0.16      0.01
  251                 47.52      0.10      0.00
  257                 26.22      0.07      0.00
  261                 40.81      0.26      0.05
  263                 18.95      0.05      0.00
  269                117.40      0.33      0.05
  271                 51.95      0.33      0.08
  273                 47.50      0.13      0.01
  275                  1.76      0.01      0.00
  277                  4.99      0.01      0.00
  281                 -3.23      0.01      0.00
  283                 -5.56      0.02      0.00
  285                -11.66      0.03      0.00
  287                -72.51      0.30      0.05
  289                226.66      0.93      0.39
  291                 62.70      0.26      0.04
  293                 45.00      0.29      0.06
  295                -17.22      0.05      0.00
  297                471.28      3.01      4.53
  299                226.46      1.45      1.17
  301                226.46      1.45      1.17
  303                244.82      1.56      1.35
  305                144.69      0.41      0.07
  307                389.51      1.10      0.44
  309                184.91      1.18      0.80
  311                 51.20      0.15      0.01
  313                409.24      1.16      0.48
  315              -2049.97      1.45      0.33
  317                116.59      0.74      0.34
  319                -21.51      0.06      0.00
  321               7558.61      3.43      1.06
  323               -117.68      0.33      0.05
  325                155.95      1.00      0.58
  329              13140.71      5.96      3.00
  330                  0.00      0.00      0.00
  333                 -0.00      0.00      0.00
  10                   0.00      0.00      0.00  Pump
  335              13140.71      0.00    -93.59  Pump
   
   
  Node Results at 0:25:00 hrs:
  --------------------------------------------------------
                     Demand      Head  Pressure  Chemical
  Node                  gpm        ft       psi      mg/L
  --------------------------------------------------------
  10                   0.00    146.94     -0.03      0.00
  15                 703.80    118.76     37.59      0.00
  20                   0.00    158.37     12.73      0.00
  35                1566.60    146.40     58.02      0.00
  40                   0.00    145.34      5.82      0.00
  50                   0.00    139.58     10.00      0.00
  60                   0.00    209.04     90.58      0.00
  601                  0.00    302.65    131.14      0.00
  61                   0.00    302.65    131.14      0.00
  101                218.44    146.94     45.47      0.00
  103                153.18    146.90     45.02      0.00
  105                155.68    148.14     51.84      0.00
  107                 62.84    148.12     54.65      0.00
  109                266.11    146.90     54.86      0.00
  111                163.23    147.24     59.47      0.00
  113                 23.01    147.24     62.93      0.00
  115                 59.91    148.13     58.12      0.00
  117                135.37    151.16     59.60      0.00
  119                202.55    158.19     67.68      0.00
  120                  0.00    155.93     67.56      0.00
  121                 47.87    161.59     70.88      0.00
  123                  0.00    166.03     67.18      0.00
  125                 52.44    160.97     64.98      0.00
  127                 20.31    159.17     44.70      0.00
  129                  0.00    159.15     46.86      0.00
  131                 49.16    159.14     66.35      0.00
  139                  6.77    152.71     52.74      0.00
  141                 11.33    148.08     62.43      0.00
  143                  7.13    134.49     60.22      0.00
  145                 31.77    149.71     64.43      0.00
  147                  9.83    150.88     57.36      0.00
  149                 31.13    151.37     58.65      0.00
  151                166.15    156.00     53.08      0.00
  153                 50.80    156.11     38.96      0.00
  157                 59.56    155.77     61.82      0.00
  159                 47.52    152.42     63.44      0.00
  161                 18.17    150.15     63.33      0.00
  163                 10.83    149.69     62.69      0.00
  164                  0.00    149.69     62.69      0.00
  166                  2.99    149.69     65.73      0.00
  167                 16.74    147.81     66.21      0.00
  169                  0.00    147.81     66.21      0.00
  171                 45.24    146.70     65.30      0.00
  173                  0.00    146.68     65.29      0.00
  177                 66.90    146.38     59.96      0.00
  179                  0.00    146.37     59.95      0.00
  181                  0.00    146.40     59.97      0.00
  183                  0.00    146.38     58.66      0.00
  184                  0.00    145.16     55.96      0.00
  185                 29.50    145.80     56.24      0.00
  187                  0.00    146.66     58.13      0.00
  189                124.11    146.93     61.93      0.00
  191                 94.18    147.07     52.89      0.00
  193                 82.01    147.16     55.96      0.00
  195                  0.00    147.22     57.07      0.00
  197                 19.60    147.11     53.78      0.00
  199                137.22    141.10     62.01      0.00
  201                 51.30    140.30     60.75      0.00
  203               4686.59    140.12     59.85      0.00
  204                  0.00    146.36     54.32      0.00
  205                 75.16    141.08     52.03      0.00
  206                  0.00    140.10     60.27      0.00
  207                 79.80    140.31     56.90      0.00
  208                  0.00    139.86     53.67      0.00
  209                  1.00    139.45     61.29      0.00
  211                  9.97    139.31     57.33      0.00
[...]
  219                 70.24    139.14     58.55      0.00
  225                 38.76    139.14     56.82      0.00
  229                109.11    139.13     55.74      0.00
  231                 28.02    139.13     58.12      0.00
  237                 26.54    139.21     54.26      0.00
  239                 75.84    139.17     54.67      0.00
  241                  0.00    139.17     54.67      0.00
  243                  7.38    139.17     54.24      0.00
  247                119.65    139.17     52.50      0.00
  249                  0.00    139.17     52.50      0.00
  251                 41.07    139.17     47.30      0.00
  253                 92.68    139.12     44.68      0.00
  255                 68.66    139.20     48.62      0.00
  257                  0.00    152.25     58.61      0.00
  259                  0.00    151.80     54.94      0.00
  261                  0.00    150.18     65.07      0.00
  263                  0.00    150.00     64.99      0.00
  265                  0.00    149.34     64.71      0.00
  267                  0.00    147.57     54.84      0.00
  269                  0.00    148.12     64.18      0.00
  271                  0.00    147.73     61.41      0.00
  273                  0.00    143.06     58.52      0.00
  275                  0.00    142.52     57.42      0.00
  River           -13179.39    220.00      0.00      0.00  Reservoir
  Lake                 0.00    167.00      0.00      0.00  Reservoir
  1                 -173.13    147.78      6.88      0.00  Tank
  2                 -247.43    139.63     10.02      0.00  Tank
  3                 1428.32    159.77     13.33      0.00  Tank
   
   
  Link Results at 23:55:00 hrs:
  ----------------------------------------------
                       Flow  Velocity  Headloss
  Link                  gpm       fps   /1000ft
  ----------------------------------------------
  20               -1428.32      0.06      0.00
  40                 173.13      0.01      0.00
  50                 247.43      0.01      0.00
  60               13179.39      9.35      8.95
  101                  0.00      0.00      0.00
  103                119.71      0.19      0.01
  105               -442.62      1.26      0.56
  107                -15.72      0.04      0.00
  109               -106.73      0.17      0.01
  111               -500.11      1.42      0.70
  112                416.67      1.18      0.50
  113               -206.52      0.59      0.14
  114                 81.50      0.52      0.18
  115               -108.61      0.69      0.30
  116               -159.03      0.45      0.08
  117                657.03      1.86      1.16
  119               -695.35      1.97      1.29
  120               1190.32      3.38      3.50
  121               1055.97      3.00      2.80
  122                362.17      2.31      2.78
  123               9345.60      4.24      1.58
  125              11806.79      5.36      2.43
  129               2028.25      1.44      0.32
  131               1753.36      1.24      0.25
  133              -1428.32      1.46      0.41
  135                295.02      0.21      0.01
  137                 72.68      0.12      0.00
  145                222.34      1.42      1.13
  147                212.33      1.36      1.04
  149               -326.04      2.08      2.29
  151               -315.50      2.01      2.16
  153                130.46      0.37      0.06
  155                177.43      0.50      0.10
  159               -191.96      0.54      0.12
  161               -237.98      1.52      1.28
  163               -122.29      0.35      0.05
  169                197.37      1.26      0.90
  171                361.31      1.02      0.38
  173               7494.55      3.40      1.05
  175               7406.50      3.36      1.03
  177               7336.26      3.33      1.01
  179               7045.05      3.20      0.93
  180                  4.42      0.01      0.00
  181                  4.42      0.01      0.00
  183               6803.37      3.09      0.88
  185                -24.75      0.16      0.02
  186                246.46      1.57      1.37
  187               6144.57      2.79      0.73
  189               4436.67      2.01      0.40
  191              -1641.03      1.16      0.22
  193              -1545.56      1.10      0.19
  195                203.41      0.58      0.13
  197                104.52      0.30      0.04
  199                277.65      0.79      0.24
  201                173.13      0.49      0.10
  202                495.60      3.16      4.98
  203                292.75      1.87      1.88
  204                495.60      1.41      0.69
  205                246.46      0.70      0.19
  207                 15.10      0.04      0.00
  209                223.97      1.43      1.14
  211                634.04      1.80      1.09
  213                 22.49      0.06      0.00
  215               -103.57      0.29      0.04
  217               -308.90      0.88      0.29
  219               -264.35      0.75      0.22
  221                264.35      1.69      1.55
  223               -147.19      0.42      0.07
  225               -118.22      0.34      0.05
  229               4436.67      3.15      1.18
  231               4016.84      2.85      0.98
  233               3756.19      2.66      1.00
  235                216.98      0.62      0.15
  237                504.46      1.43      0.71
  238                668.32      1.90      1.20
  239                281.83      0.80      0.24
  240                668.32      1.90      1.20
  241                668.32      1.90      1.20
  243                666.85      1.06      0.29
  245                407.73      0.65      0.12
  247                306.90      0.49      0.07
  249                150.18      0.24      0.02
  251                 70.24      0.15      0.01
  257                 38.76      0.11      0.01
  261                 77.13      0.49      0.16
  263                 28.02      0.08      0.00
  269                244.38      0.69      0.19
  271                 59.99      0.38      0.10
  273                157.85      0.45      0.08
  275                 35.28      0.10      0.01
  277                  7.38      0.02      0.00
  281                 27.91      0.11      0.01
  283                 46.73      0.13      0.01
  285                -39.07      0.11      0.01
  287                -52.67      0.22      0.03
  289                247.43      1.01      0.46
  291                 92.68      0.38      0.08
  293                 33.42      0.21      0.03
  295                  7.66      0.02      0.00
  297                496.52      3.17      4.99
  299                238.78      1.52      1.29
  301                238.78      1.52      1.29
  303                257.74      1.65      1.48
  305                160.51      0.46      0.09
  307                418.25      1.19      0.50
  309                221.24      1.41      1.12
  311               -324.81      0.92      0.32
  313                526.10      1.49      0.77
  315              -1748.97      1.24      0.24
  317                 97.01      0.62      0.24
  319                119.97      0.34      0.05
  321               7024.61      3.19      0.93
  323                184.81      0.52      0.11
  325                107.94      0.69      0.30
  329              13179.39      5.98      3.02
  330                  0.00      0.00      0.00
  333                 -0.00      0.00      0.00
  10                   0.00      0.00      0.00  Pump
  335              13179.39      0.00    -93.25  Pump
   
   
  Node Results at 24:00:00 hrs:
  --------------------------------------------------------
                     Demand      Head  Pressure  Chemical
  Node                  gpm        ft       psi      mg/L
  --------------------------------------------------------
  10                   0.00    148.65      0.71      0.00
  15                 703.80    120.28     38.25      0.00
  20                   0.00    159.82     13.35      0.00
  35                1566.60    148.18     58.79      0.00
  40                   0.00    147.76      6.87      0.00
  50                   0.00    139.55      9.99      0.00
  60                   0.00    209.12     90.61      0.00
  601                  0.00    303.17    131.36      0.00
  61                   0.00    303.17    131.36      0.00
  101                218.44    148.65     46.21      1.02
  103                153.18    148.61     45.76     68.68
  105                155.68    149.83     52.57      3.04
  107                 62.84    149.82     55.38      0.00
  109                266.11    148.61     55.60      0.00
  111                163.23    148.96     60.21      0.00
  113                 23.01    148.96     63.68      0.00
  115                 59.91    149.82     58.85      0.00
  117                135.37    152.81     60.32      0.00
  119                202.55    159.75     68.35      0.00
  120                  0.00    157.52     68.25      0.00
  121                 47.87    163.10     71.54      0.00
  123                  0.00    167.51     67.82      0.00
  125                 52.44    162.47     65.63      0.00
  127                 20.31    160.63     45.34      0.00
  129                  0.00    160.62     47.50      0.00
  131                 49.16    160.60     66.99      0.00
  139                  6.77    154.20     53.38      0.00
  141                 11.33    149.60     63.09      0.00
  143                  7.13    136.00     60.88      0.00
  145                 31.77    151.22     65.09      0.00
  147                  9.83    152.40     58.02      0.00
  149                 31.13    152.89     59.32      0.00
  151                166.15    157.54     53.75      0.00
  153                 50.80    157.64     39.62      0.00
  157                 59.56    157.36     62.51      0.00
  159                 47.52    154.07     64.16      0.00
  161                 18.17    151.83     64.06      0.00
  163                 10.83    151.38     63.43      0.00
  164                  0.00    151.38     63.43      0.00
  166                  2.99    151.38     66.46      0.00
  167                 16.74    149.53     66.96      0.00
  169                  0.00    149.53     66.96      0.00
  171                 45.24    148.44     66.05      0.00
  173                  0.00    148.41     66.04      0.00
  177                 66.90    148.18     60.74      0.00
  179                  0.00    148.18     60.74      0.00
  181                  0.00    148.19     60.74      0.00
  183                  0.00    148.19     59.44      0.00
  184                  0.00    146.85     56.70      0.00
  185                 29.50    147.53     56.99      0.00
  187                  0.00    148.39     58.88      0.00
  189                124.11    148.68     62.69      0.00
  191                 94.18    148.80     53.64      0.00
  193                 82.01    148.88     56.71      0.00
  195                  0.00    148.94     57.82      0.00
  197                 19.60    148.83     54.52      0.00
  199                137.22    142.58     62.65      0.00
  201                 51.30    141.74     61.37      0.00
  203               4686.59    141.56     60.47      0.00
  204                  0.00    148.09     55.07      0.00
  205                 75.16    142.55     52.67      0.00
  206                  0.00    141.31     60.80      0.00
  207                 79.80    141.68     57.49      0.00
  208                  0.00    140.90     54.12      0.00
  209                  1.00    140.18     61.61      0.00
  211                  9.97    139.94     57.60      0.00
  213                 16.03    139.88     57.58      0.00
  215                106.02    139.73     57.51      0.00
  217                 27.85    139.72     57.94      0.00
  219                 47.52    139.71     58.80      0.00
  225                 26.22    139.71     57.07      0.00
  229                 73.81    139.57     55.93      0.00
  231                 18.95    139.57     58.31      0.00
  237                 17.95    139.58     54.41      0.00
  239                 51.30    139.52     54.82      0.00
  241                  0.00    139.52     54.82      0.00
  243                  4.99    139.52     54.39      0.00
  247                 80.94    139.51     52.65      0.00
  249                  0.00    139.51     52.65      0.00
  251                 27.78    139.50     47.45      0.00
  253                 62.70    139.46     44.83      0.00
  255                 46.45    139.50     48.75      0.00
  257                  0.00    154.63     59.63      0.00
  259                  0.00    154.22     55.99      0.00
  261                  0.00    152.76     66.19      0.00
  263                  0.00    152.61     66.13      0.00
  265                  0.00    150.12     65.05      0.00
  267                  0.00    148.87     55.41      0.00
  269                  0.00    148.98     64.55      0.00
  271                  0.00    148.26     61.64      0.00
  273                  0.00    142.55     58.30      0.00
  275                  0.00    141.74     57.08      0.00
  River           -13088.85    220.00      0.00      0.00  Reservoir
  Lake                 0.00    167.00      0.00      0.00  Reservoir
  1                  342.33    147.76      6.87      0.00  Tank
  2                  -78.55    139.55      9.99      0.00  Tank
  3                 2362.76    159.82     13.35      0.00  Tank
   
   
  Link Results at 24:00:00 hrs:
  ----------------------------------------------
                       Flow  Velocity  Headloss
  Link                  gpm       fps   /1000ft
  ----------------------------------------------
  20               -2362.76      0.10      0.00
  40                -342.33      0.01      0.00
  50                  78.55      0.00      0.00
  60               13088.85      9.28      8.84
  101                  0.00      0.00      0.00
  103                182.98      0.29      0.03
  105               -401.42      1.14      0.47
  107                 54.41      0.15      0.01
  109                 29.80      0.05      0.00
  111               -236.31      0.67      0.18
  112                516.55      1.47      0.75
  113                  4.50      0.01      0.00
  114                132.52      0.85      0.43
  115                 -8.42      0.05      0.00
  116                114.01      0.32      0.05
  117                611.51      1.73      1.02
  119               -717.41      2.04      1.37
  120               1106.50      3.14      3.06
  121                996.25      2.83      2.52
  122                357.79      2.28      2.72
  123               9654.54      4.38      1.67
  125              13088.85      5.94      2.94
  129               3028.65      2.15      0.67
  131               2761.43      1.96      0.57
  133              -2362.76      2.41      1.03
  135                378.36      0.27      0.01
  137                 49.16      0.08      0.00
  145                329.20      2.10      2.33
  147                322.43      2.06      2.25
  149               -710.93      4.54      9.71
  151               -703.80      4.49      9.53
  153                399.83      1.13      0.46
  155                431.60      1.22      0.53
  159               -441.44      1.25      0.56
  161               -472.57      3.02      4.56
  163               -163.99      0.47      0.09
  169                214.78      1.37      1.06
  171                474.73      1.35      0.64
  173               7870.75      3.57      1.15
  175               7811.20      3.55      1.13
  177               7763.68      3.52      1.12
  179               7509.89      3.41      1.05
  180                  2.99      0.01      0.00
  181                  2.99      0.01      0.00
  183               7312.49      3.32      1.00
  185                -16.74      0.11      0.01
  186                379.09      2.42      3.03
  187               6740.11      3.06      0.86
  189               4982.65      2.26      0.49
  191              -1712.22      1.21      0.23
  193              -1566.60      1.11      0.20
  195                297.68      0.84      0.27
  197                230.79      0.65      0.17
  199               -111.55      0.32      0.04
  201               -342.33      0.97      0.35
  202                588.35      3.76      6.84
  203                238.76      1.52      1.29
  204                588.35      1.67      0.95
  205                379.09      1.08      0.42
  207                350.31      0.99      0.36
  209                154.40      0.99      0.57
  211                555.64      1.58      0.85
  213                224.69      0.64      0.16
  215                225.24      0.64      0.16
  217               -225.96      0.64      0.16
  219               -235.62      0.67      0.17
  221                235.62      1.50      1.26
  223                 92.92      0.26      0.03
  225                112.51      0.32      0.04
  229               4982.65      3.53      1.46
  231               4731.20      3.36      1.33
  233               4686.59      3.32      1.51
  235                114.23      0.32      0.05
  237                507.49      1.44      0.72
  238                540.93      1.53      0.81
  239                113.23      0.32      0.04
  240                540.93      1.53      0.81
  241                540.93      1.53      0.81
  243                539.93      0.86      0.20
  245                295.45      0.47      0.07
  247                207.61      0.33      0.03
  249                101.59      0.16      0.01
  251                 47.52      0.10      0.00
  257                 26.22      0.07      0.00
  261                 71.81      0.46      0.14
  263                 18.95      0.05      0.00
  269                234.51      0.67      0.17
  271                 20.95      0.13      0.01
  273                195.61      0.55      0.12
  275                 57.15      0.16      0.01
  277                  4.99      0.01      0.00
  281                 52.16      0.21      0.03
  283                 87.15      0.25      0.03
  285                -52.99      0.15      0.01
  287                 24.21      0.10      0.01
  289                 78.55      0.32      0.06
  291                 62.70      0.26      0.04
  293                 -6.39      0.04      0.00
  295                 34.17      0.10      0.00
  297                468.04      2.99      4.48
  299                224.90      1.44      1.15
  301                224.90      1.44      1.15
  303                243.14      1.55      1.33
  305                143.47      0.41      0.07
  307                386.61      1.10      0.44
  309                183.58      1.17      0.79
  311                 41.67      0.12      0.01
  313                403.57      1.14      0.47
  315              -1864.28      1.32      0.27
  317                119.92      0.77      0.36
  319                 -5.69      0.02      0.00
  321               7496.07      3.40      1.05
  323                 -6.69      0.02      0.00
  325                152.07      0.97      0.56
  329              13088.85      5.94      2.98
  330                  0.00      0.00      0.00
  333                 -0.00      0.00      0.00
  10                   0.00      0.00      0.00  Pump
  335              13088.85      0.00    -94.05  Pump
   
  Analysis ended Wed May 06 17:50:00 2020
