  Page 1                                    Wed May 06 17:51:55 2020

  ******************************************************************
  *                           E P A N E T                          *
  *                   Hydraulic and Water Quality                  *
  *                   Analysis for Pipe Networks                   *
  *                         Version 2.00.12                        *
  ******************************************************************
  
  Analysis begun Wed May 06 17:51:55 2020

   
  Hydraulic Status:
  -----------------------------------------------------------------------
     0:00:00: Balanced after 5 trials
     0:00:00: Reservoir River is emptying
     0:00:00: Reservoir Lake is closed
     0:00:00: Tank 1 is filling at 13.10 ft
     0:00:00: Tank 2 is emptying at 23.50 ft
     0:00:00: Tank 3 is filling at 29.00 ft
   
     0:05:00: Balanced after 2 trials
   
     0:10:00: Balanced after 2 trials
   
     0:15:00: Balanced after 2 trials
   
     0:20:00: Balanced after 2 trials
   
     0:25:00: Balanced after 2 trials
   
     0:30:00: Balanced after 2 trials
   
     0:35:00: Balanced after 2 trials
   
     0:40:00: Balanced after 2 trials
   
     0:45:00: Balanced after 2 trials
   
     0:50:00: Balanced after 2 trials
   
     0:55:00: Balanced after 2 trials
   
     1:00:00: Pump 10 changed by timer control
     1:00:00: Balanced after 7 trials
     1:00:00: Reservoir Lake is emptying
     1:00:00: Pump 10 changed from closed to open
   
     1:05:00: Balanced after 2 trials
   
     1:10:00: Balanced after 2 trials
   
     1:15:00: Balanced after 2 trials
   
     1:20:00: Balanced after 2 trials
   
     1:25:00: Balanced after 2 trials
   
     1:30:00: Balanced after 2 trials
   
     1:35:00: Balanced after 2 trials
   
     1:40:00: Balanced after 2 trials
   
     1:45:00: Balanced after 2 trials
   
     1:50:00: Balanced after 2 trials
   
     1:55:00: Balanced after 2 trials
   
     2:00:00: Balanced after 3 trials
   
     2:05:00: Balanced after 1 trials
   
     2:10:00: Balanced after 1 trials
   
     2:15:00: Balanced after 1 trials
     2:15:00: Tank 2 is filling at 20.96 ft
   
     2:20:00: Balanced after 1 trials
   
     2:25:00: Balanced after 1 trials
   
     2:30:00: Balanced after 1 trials
   
     2:35:00: Balanced after 1 trials
   
     2:40:00: Balanced after 1 trials
   
     2:45:00: Balanced after 1 trials
   
     2:50:00: Balanced after 1 trials
   
     2:55:00: Balanced after 1 trials
   
     3:00:00: Balanced after 3 trials
   
     3:05:00: Balanced after 1 trials
   
     3:10:00: Balanced after 1 trials
   
     3:15:00: Balanced after 1 trials
   
     3:20:00: Balanced after 1 trials
   
     3:25:00: Balanced after 1 trials
   
     3:30:00: Balanced after 1 trials
   
     3:35:00: Balanced after 1 trials
   
     3:40:00: Balanced after 1 trials
   
     3:45:00: Balanced after 1 trials
   
     3:50:00: Balanced after 1 trials
   
     3:55:00: Balanced after 1 trials
   
     4:00:00: Balanced after 3 trials
   
     4:05:00: Balanced after 1 trials
   
     4:10:00: Balanced after 1 trials
   
     4:15:00: Balanced after 1 trials
   
     4:20:00: Balanced after 1 trials
   
     4:24:10: Pump 335 changed by Tank 1 control
     4:24:10: Pipe 330 changed by Tank 1 control
     4:24:10: Balanced after 4 trials
     4:24:10: Pipe 330 changed from closed to open
     4:24:10: Pump 335 changed from open to closed
   
     4:25:00: Balanced after 1 trials
   
     4:30:00: Balanced after 2 trials
   
     4:35:00: Balanced after 2 trials
   
     4:40:00: Balanced after 2 trials
   
     4:45:00: Balanced after 2 trials
   
     4:50:00: Balanced after 2 trials
   
     4:55:00: Balanced after 2 trials
   
     5:00:00: Balanced after 3 trials
     5:00:00: Tank 3 is emptying at 34.33 ft
   
     5:05:00: Balanced after 2 trials
   
     5:10:00: Balanced after 2 trials
   
     5:15:00: Balanced after 2 trials
   
     5:20:00: Balanced after 2 trials
   
     5:25:00: Balanced after 2 trials
   
     5:30:00: Balanced after 2 trials
   
     5:35:00: Balanced after 2 trials
   
     5:40:00: Balanced after 2 trials
   
     5:45:00: Balanced after 2 trials
   
     5:50:00: Balanced after 2 trials
   
     5:55:00: Balanced after 2 trials
   
     6:00:00: Balanced after 3 trials
     6:00:00: Tank 3 is filling at 34.15 ft
   
     6:05:00: Balanced after 1 trials
   
     6:10:00: Balanced after 1 trials
   
     6:15:00: Balanced after 1 trials
   
     6:20:00: Balanced after 1 trials
   
     6:25:00: Balanced after 1 trials
   
     6:30:00: Balanced after 1 trials
   
     6:35:00: Balanced after 1 trials
   
     6:40:00: Balanced after 1 trials
   
     6:45:00: Balanced after 1 trials
   
     6:50:00: Balanced after 1 trials
   
     6:55:00: Balanced after 1 trials
   
     7:00:00: Balanced after 3 trials
   
     7:05:00: Balanced after 1 trials
   
     7:10:00: Balanced after 1 trials
   
     7:15:00: Balanced after 1 trials
   
     7:20:00: Balanced after 1 trials
   
     7:25:00: Balanced after 1 trials
   
     7:30:00: Balanced after 1 trials
   
     7:35:00: Balanced after 1 trials
   
     7:40:00: Balanced after 1 trials
   
     7:45:00: Balanced after 1 trials
   
     7:50:00: Balanced after 1 trials
   
     7:55:00: Balanced after 1 trials
   
     8:00:00: Balanced after 3 trials
   
     8:05:00: Balanced after 1 trials
   
     8:10:00: Balanced after 1 trials
   
     8:15:00: Balanced after 1 trials
   
     8:20:00: Balanced after 1 trials
   
     8:25:00: Balanced after 1 trials
   
     8:30:00: Balanced after 1 trials
   
     8:35:00: Balanced after 1 trials
   
     8:40:00: Balanced after 1 trials
   
     8:45:00: Balanced after 1 trials
   
     8:50:00: Balanced after 1 trials
   
     8:55:00: Balanced after 1 trials
   
     9:00:00: Balanced after 3 trials
     9:00:00: Tank 1 is emptying at 21.76 ft
     9:00:00: Tank 2 is emptying at 26.39 ft
     9:00:00: Tank 3 is emptying at 35.03 ft
   
     9:05:00: Balanced after 1 trials
   
     9:10:00: Balanced after 1 trials
   
     9:15:00: Balanced after 1 trials
   
     9:20:00: Balanced after 1 trials
   
     9:25:00: Balanced after 1 trials
   
     9:30:00: Balanced after 1 trials
   
     9:35:00: Balanced after 1 trials
   
     9:40:00: Balanced after 1 trials
   
     9:45:00: Balanced after 1 trials
   
     9:50:00: Balanced after 1 trials
   
     9:55:00: Balanced after 1 trials
   
    10:00:00: Balanced after 4 trials
    10:00:00: Tank 1 is filling at 21.04 ft
    10:00:00: Tank 2 is filling at 25.89 ft
   
    10:05:00: Balanced after 2 trials
   
    10:10:00: Balanced after 2 trials
   
    10:15:00: Balanced after 2 trials
   
    10:20:00: Balanced after 2 trials
   
    10:25:00: Balanced after 2 trials
   
    10:30:00: Balanced after 2 trials
   
    10:35:00: Balanced after 2 trials
   
    10:40:00: Balanced after 2 trials
   
    10:45:00: Balanced after 2 trials
   
    10:50:00: Balanced after 2 trials
   
    10:55:00: Balanced after 2 trials
   
    11:00:00: Balanced after 3 trials
    11:00:00: Tank 1 is emptying at 21.34 ft
    11:00:00: Tank 2 is emptying at 26.47 ft
   
    11:05:00: Balanced after 1 trials
   
    11:10:00: Balanced after 1 trials
   
    11:15:00: Balanced after 1 trials
   
    11:20:00: Balanced after 1 trials
   
    11:25:00: Balanced after 1 trials
   
    11:30:00: Balanced after 1 trials
   
    11:35:00: Balanced after 1 trials
   
    11:40:00: Balanced after 1 trials
   
    11:45:00: Balanced after 1 trials
   
    11:50:00: Balanced after 1 trials
   
    11:55:00: Balanced after 1 trials
   
    12:00:00: Balanced after 3 trials
   
    12:05:00: Balanced after 1 trials
   
    12:10:00: Balanced after 1 trials
   
    12:15:00: Balanced after 1 trials
   
    12:20:00: Balanced after 1 trials
   
    12:25:00: Balanced after 1 trials
   
    12:30:00: Balanced after 1 trials
   
    12:35:00: Balanced after 1 trials
   
    12:40:00: Balanced after 1 trials
   
    12:45:00: Balanced after 1 trials
   
    12:50:00: Balanced after 1 trials
   
    12:55:00: Balanced after 1 trials
   
    13:00:00: Balanced after 3 trials
    13:00:00: Tank 1 is filling at 20.47 ft
    13:00:00: Tank 2 is filling at 25.66 ft
   
    13:05:00: Balanced after 2 trials
   
    13:10:00: Balanced after 2 trials
   
    13:15:00: Balanced after 2 trials
   
    13:20:00: Balanced after 2 trials
   
    13:25:00: Balanced after 2 trials
   
    13:30:00: Balanced after 2 trials
   
    13:35:00: Balanced after 2 trials
   
    13:40:00: Balanced after 2 trials
   
    13:45:00: Balanced after 2 trials
   
    13:50:00: Balanced after 2 trials
   
    13:55:00: Balanced after 2 trials
   
    14:00:00: Balanced after 3 trials
    14:00:00: Tank 3 is filling at 33.16 ft
   
    14:05:00: Balanced after 2 trials
   
    14:10:00: Balanced after 2 trials
   
    14:15:00: Balanced after 2 trials
   
    14:20:00: Balanced after 2 trials
   
    14:25:00: Balanced after 2 trials
   
    14:30:00: Balanced after 2 trials
   
    14:35:00: Balanced after 2 trials
   
    14:40:00: Balanced after 2 trials
   
    14:45:00: Balanced after 2 trials
   
    14:50:00: Balanced after 2 trials
   
    14:55:00: Balanced after 2 trials
   
    15:00:00: Pump 10 changed by timer control
    15:00:00: Balanced after 5 trials
    15:00:00: Reservoir Lake is closed
    15:00:00: Tank 1 is emptying at 21.87 ft
    15:00:00: Tank 3 is emptying at 33.25 ft
    15:00:00: Pump 10 changed from open to closed
   
    15:05:00: Balanced after 2 trials
   
    15:10:00: Balanced after 2 trials
   
    15:15:00: Balanced after 2 trials
   
    15:20:00: Balanced after 2 trials
    15:20:00: Tank 2 is emptying at 27.74 ft
   
    15:25:00: Balanced after 2 trials
   
    15:30:00: Balanced after 2 trials
   
    15:35:00: Balanced after 2 trials
   
    15:40:00: Balanced after 2 trials
   
    15:45:00: Balanced after 2 trials
   
    15:50:00: Balanced after 2 trials
   
    15:55:00: Balanced after 2 trials
   
    16:00:00: Balanced after 3 trials
   
    16:05:00: Balanced after 1 trials
   
    16:10:00: Balanced after 1 trials
   
    16:15:00: Balanced after 1 trials
   
    16:20:00: Balanced after 1 trials
   
    16:25:00: Balanced after 1 trials
   
    16:30:00: Balanced after 1 trials
   
    16:35:00: Balanced after 1 trials
   
    16:40:00: Balanced after 1 trials
   
    16:45:00: Balanced after 1 trials
   
    16:50:00: Balanced after 1 trials
   
    16:55:00: Balanced after 1 trials
   
    17:00:00: Balanced after 3 trials
   
    17:05:00: Balanced after 1 trials
   
    17:10:00: Balanced after 1 trials
   
    17:15:00: Balanced after 1 trials
   
    17:20:00: Balanced after 1 trials
   
    17:25:00: Balanced after 1 trials
   
    17:30:00: Balanced after 1 trials
   
    17:35:00: Balanced after 1 trials
   
    17:40:00: Balanced after 1 trials
   
    17:45:00: Balanced after 1 trials
   
    17:50:00: Balanced after 1 trials
   
    17:55:00: Balanced after 1 trials
   
    18:00:00: Balanced after 3 trials
   
    18:05:00: Balanced after 1 trials
   
    18:10:00: Balanced after 1 trials
   
    18:15:00: Balanced after 1 trials
   
    18:20:00: Balanced after 1 trials
   
    18:25:00: Balanced after 1 trials
   
    18:30:00: Balanced after 1 trials
   
    18:35:00: Balanced after 1 trials
   
    18:40:00: Balanced after 1 trials
   
    18:45:00: Balanced after 1 trials
   
    18:50:00: Balanced after 1 trials
   
    18:55:00: Balanced after 1 trials
   
    19:00:00: Balanced after 3 trials
    19:00:00: Tank 2 is filling at 26.28 ft
   
    19:05:00: Balanced after 2 trials
   
    19:10:00: Balanced after 1 trials
   
    19:15:00: Balanced after 1 trials
   
    19:20:00: Balanced after 1 trials
   
    19:25:00: Balanced after 1 trials
   
    19:30:00: Balanced after 1 trials
   
    19:35:00: Balanced after 1 trials
   
    19:40:00: Balanced after 1 trials
   
    19:45:00: Balanced after 1 trials
   
    19:50:00: Balanced after 1 trials
   
    19:55:00: Balanced after 1 trials
   
    20:00:00: Balanced after 3 trials
    20:00:00: Tank 2 is emptying at 26.47 ft
   
    20:05:00: Balanced after 1 trials
   
    20:10:00: Balanced after 1 trials
   
    20:15:00: Balanced after 1 trials
   
    20:20:00: Balanced after 1 trials
   
    20:25:00: Balanced after 1 trials
   
    20:30:00: Balanced after 1 trials
   
    20:35:00: Balanced after 1 trials
   
    20:40:00: Balanced after 1 trials
   
    20:45:00: Balanced after 1 trials
   
    20:46:11: Pump 335 changed by Tank 1 control
    20:46:11: Pipe 330 changed by Tank 1 control
    20:46:11: Balanced after 5 trials
    20:46:11: Tank 1 is filling at 17.10 ft
    20:46:11: Tank 3 is filling at 29.72 ft
    20:46:11: Pipe 330 changed from open to closed
    20:46:11: Pump 335 changed from closed to open
   
    20:50:00: Balanced after 1 trials
   
    20:55:00: Balanced after 2 trials
   
    21:00:00: Balanced after 3 trials
    21:00:00: Tank 1 is emptying at 17.23 ft
   
    21:05:00: Balanced after 2 trials
   
    21:10:00: Balanced after 2 trials
   
    21:15:00: Balanced after 2 trials
   
    21:20:00: Balanced after 2 trials
   
    21:25:00: Balanced after 2 trials
   
    21:30:00: Balanced after 2 trials
    21:30:00: Tank 1 is filling at 17.20 ft
   
    21:35:00: Balanced after 2 trials
   
    21:40:00: Balanced after 2 trials
   
    21:45:00: Balanced after 2 trials
   
    21:50:00: Balanced after 2 trials
   
    21:55:00: Balanced after 2 trials
   
    22:00:00: Balanced after 3 trials
    22:00:00: Tank 1 is emptying at 17.22 ft
   
    22:05:00: Balanced after 2 trials
   
    22:10:00: Balanced after 2 trials
   
    22:15:00: Balanced after 2 trials
   
    22:20:00: Balanced after 2 trials
   
    22:25:00: Balanced after 2 trials
   
    22:30:00: Balanced after 2 trials
   
    22:35:00: Balanced after 2 trials
   
    22:40:00: Balanced after 2 trials
   
    22:45:00: Balanced after 2 trials
   
    22:50:00: Balanced after 2 trials
   
    22:55:00: Balanced after 2 trials
   
    23:00:00: Balanced after 4 trials
   
    23:05:00: Balanced after 2 trials
   
    23:10:00: Balanced after 2 trials
   
    23:15:00: Balanced after 2 trials
   
    23:20:00: Balanced after 2 trials
   
    23:25:00: Balanced after 2 trials
   
    23:30:00: Balanced after 2 trials
   
    23:35:00: Balanced after 2 trials
   
    23:40:00: Balanced after 2 trials
   
    23:45:00: Balanced after 2 trials
   
    23:50:00: Balanced after 2 trials
   
    23:55:00: Balanced after 2 trials
   
    24:00:00: Balanced after 4 trials
    24:00:00: Tank 1 is filling at 15.67 ft
   
   
  Node Results at 0:00:00 hrs:
  --------------------------------------------------------
                     Demand      Head  Pressure  Chemical
  Node                  gpm        ft       psi      mg/L
  --------------------------------------------------------
  10                   0.00    145.96     -0.45      0.00
  15                 624.46    125.59     40.55      0.00
  20                   0.00    158.00     12.57      0.00
  35                1714.66    146.15     57.91      0.00
  40                   0.00    145.00      5.68      0.00
  50                   0.00    140.00     10.18      0.00
  60                   0.00    209.02     90.57      0.00
  601                  0.00    302.52    131.08      0.00
  61                   0.00    302.52    131.08      0.00
  101                252.63    145.96     45.05      0.00
  103                177.16    145.93     44.60      0.00
  105                180.04    147.25     51.45      0.00
  107                 72.67    147.24     54.27      0.00
  109                307.76    145.93     54.44      0.00
  111                188.78    146.54     59.16      0.00
  113                 26.61    146.58     62.65      0.00
  115                 69.29    147.34     57.77      0.00
  117                156.55    150.40     59.27      0.00
  119                234.25    157.80     67.51      0.00
  120                  0.00    155.40     67.34      0.00
  121                 55.37    161.20     70.71      0.00
  123                  0.00    165.65     67.01      0.00
  125                 60.65    160.58     64.82      0.00
  127                 23.49    158.79     44.54      0.00
  129                  0.00    158.78     46.70      0.00
  131                 56.86    158.76     66.19      0.00
  139                  7.83    153.15     52.93      0.00
  141                 13.10    149.14     62.89      0.00
  143                  8.25    138.19     61.83      0.00
  145                 36.75    150.40     64.73      0.00
  147                 11.37    151.34     57.56      0.00
  149                 36.00    151.74     58.82      0.00
  151                192.16    155.66     52.93      0.00
  153                 58.75    155.75     38.80      0.00
  157                 68.88    155.40     61.66      0.00
  159                 54.96    152.11     63.31      0.00
  161                 21.01    149.87     63.21      0.00
  163                 12.53    149.42     62.58      0.00
  164                  0.00    149.42     62.58      0.00
  166                  3.46    149.42     65.61      0.00
  167                 19.36    147.59     66.12      0.00
  169                  0.00    147.59     66.12      0.00
  171                 52.32    146.53     65.22      0.00
  173                  0.00    146.51     65.22      0.00
  177                 77.37    146.13     59.85      0.00
  179                  0.00    146.11     59.84      0.00
  181                  0.00    146.16     59.86      0.00
  183                  0.00    146.12     58.55      0.00
  184                  0.00    145.05     55.92      0.00
  185                 34.11    145.57     56.14      0.00
  187                  0.00    146.23     57.95      0.00
  189                143.53    146.52     61.75      0.00
  191                108.93    146.48     52.64      0.00
  193                 94.84    146.58     55.71      0.00
  195                  0.00    146.65     56.83      0.00
  197                 22.66    146.49     53.51      0.00
  199                158.70    141.79     62.30      0.00
  201                 59.33    141.13     61.11      0.00
  203               4084.25    140.99     60.22      0.00
  204                  0.00    146.00     54.16      0.00
  205                 86.93    141.74     52.32      0.00
  206                  0.00    140.77     60.56      0.00
  207                 92.29    141.06     57.22      0.00
  208                  0.00    140.45     53.92      0.00
  209                  1.16    139.88     61.48      0.00
  211                 11.53    139.69     57.50      0.00
  213                 18.54    139.62     57.47      0.00
  215                122.61    139.43     57.38      0.00
  217                 32.21    139.41     57.81      0.00
  219                 54.96    139.40     58.67      0.00
  225                 30.32    139.41     56.94      0.00
  229                 85.36    139.46     55.88      0.00
  231                 21.92    139.46     58.26      0.00
  237                 20.76    139.53     54.39      0.00
  239                 59.33    139.52     54.82      0.00
  241                  0.00    139.52     54.82      0.00
  243                  5.77    139.52     54.39      0.00
  247                 93.61    139.52     52.66      0.00
  249                  0.00    139.52     52.66      0.00
  251                 32.13    139.52     47.46      0.00
  253                 72.51    139.53     44.86      0.00
  255                 53.72    139.59     48.78      0.00
  257                  0.00    152.33     58.64      0.00
  259                  0.00    151.90     54.99      0.00
  261                  0.00    150.35     65.15      0.00
  263                  0.00    150.19     65.08      0.00
  265                  0.00    148.17     64.20      0.00
  267                  0.00    146.60     54.42      0.00
  269                  0.00    146.92     63.66      0.00
  271                  0.00    146.26     60.78      0.00
  273                  0.00    141.74     57.95      0.00
  275                  0.00    141.13     56.82      0.00
  River           -13151.63    220.00      0.00      0.00  Reservoir
  Lake                 0.00    167.00      0.00      0.00  Reservoir
  1                  583.20    145.00      5.68      0.00  Tank
  2                 -242.30    140.00     10.18      0.00  Tank
  3                 2333.38    158.00     12.57      0.00  Tank
   
   
  Link Results at 0:00:00 hrs:
  ----------------------------------------------
                       Flow  Velocity  Headloss
  Link                  gpm       fps   /1000ft
  ----------------------------------------------
  20               -2333.38      0.10      0.00
  40                -583.20      0.02      0.00
  50                 242.30      0.01      0.00
  60               13151.63      9.33      8.92
  101                  0.00      0.00      0.00
  103                166.33      0.27      0.02
  105               -418.96      1.19      0.51
  107                 31.77      0.09      0.00
  109                -10.83      0.02      0.00
  111               -318.59      0.90      0.30
  112                493.56      1.40      0.69
  113                -80.23      0.23      0.02
  114                123.14      0.79      0.38
  115                -40.90      0.26      0.05
  116                 16.30      0.05      0.00
  117                630.77      1.79      1.08
  119               -726.90      2.06      1.40
  120               1149.10      3.26      3.28
  121               1030.27      2.92      2.68
  122                365.12      2.33      2.83
  123               9734.98      4.42      1.70
  125              13151.63      5.97      2.97
  129               2996.16      2.12      0.66
  131               2720.58      1.93      0.55
  133              -2333.38      2.38      1.01
  135                363.72      0.26      0.01
  137                 56.86      0.09      0.00
  145                306.86      1.96      2.05
  147                299.03      1.91      1.95
  149               -632.71      4.04      7.82
  151               -624.46      3.99      7.64
  153                346.78      0.98      0.36
  155                383.53      1.09      0.43
  159               -394.90      1.12      0.45
  161               -430.90      2.75      3.84
  163               -156.19      0.44      0.08
  169                214.93      1.37      1.06
  171                466.87      1.32      0.62
  173               7884.75      3.58      1.15
  175               7815.87      3.55      1.13
  177               7760.92      3.52      1.12
  179               7489.83      3.40      1.05
  180                  3.46      0.01      0.00
  181                  3.46      0.01      0.00
  183               7265.91      3.30      0.99
  185                -19.36      0.12      0.01
  186                328.24      2.10      2.32
  187               6630.70      3.01      0.84
  189               4445.28      2.02      0.40
  191              -2133.10      1.51      0.35
  193              -1714.66      1.22      0.24
  195                563.65      1.60      0.88
  197                486.29      1.38      0.67
  199                -96.91      0.27      0.03
  201               -583.20      1.65      0.93
  202                510.36      3.26      5.26
  203                216.23      1.38      1.07
  204                510.36      1.45      0.73
  205                328.24      0.93      0.32
  207                313.14      0.89      0.30
  209                154.16      0.98      0.57
  211                615.85      1.75      1.03
  213                174.08      0.49      0.10
  215                140.20      0.40      0.07
  217               -239.26      0.68      0.18
  219               -250.07      0.71      0.19
  221                250.07      1.60      1.40
  223                 43.76      0.12      0.01
  225                 66.42      0.19      0.02
  229               4445.28      3.15      1.18
  231               4158.54      2.95      1.04
  233               4084.25      2.90      1.17
  235                128.05      0.36      0.06
  237                447.38      1.27      0.57
  238                474.15      1.35      0.64
  239                119.06      0.34      0.05
  240                474.15      1.35      0.64
  241                474.15      1.35      0.64
  243                472.99      0.75      0.16
  245                309.43      0.49      0.07
  247                240.10      0.38      0.04
  249                117.49      0.19      0.01
  251                 54.96      0.11      0.01
  257                 30.32      0.09      0.00
  261                 50.79      0.32      0.07
  263                 21.92      0.06      0.00
  269                152.03      0.43      0.08
  271                 56.49      0.36      0.09
  273                 74.77      0.21      0.02
  275                  9.69      0.03      0.00
  277                  5.77      0.02      0.00
  281                  3.92      0.02      0.00
  283                  5.76      0.02      0.00
  285                -18.29      0.05      0.00
  287                -71.40      0.29      0.05
  289                242.30      0.99      0.45
  291                 72.51      0.30      0.05
  293                 44.66      0.29      0.06
  295                -12.53      0.04      0.00
  297                483.95      3.09      4.76
  299                232.51      1.48      1.23
  301                232.51      1.48      1.23
  303                251.44      1.60      1.42
  305                146.82      0.42      0.07
  307                398.26      1.13      0.46
  309                207.93      1.33      1.00
  311                -67.73      0.19      0.02
  313                470.63      1.34      0.63
  315              -2278.31      1.62      0.40
  317                104.10      0.66      0.28
  319                 23.95      0.07      0.00
  321               7473.85      3.39      1.04
  323                 14.96      0.04      0.00
  325                145.22      0.93      0.51
  329              13151.63      5.97      3.01
  330                  0.00      0.00      0.00
  333                 -0.00      0.00      0.00
  10                   0.00      0.00      0.00  Pump
  335              13151.63      0.00    -93.50  Pump
   
   
  Node Results at 0:05:00 hrs:
  --------------------------------------------------------
                     Demand      Head  Pressure  Chemical
  Node                  gpm        ft       psi      mg/L
  --------------------------------------------------------
  10                   0.00    146.01     -0.43      0.00
  15                 624.46    125.65     40.58      0.00
  20                   0.00    158.07     12.60      0.00
  35                1714.66    146.20     57.93      0.00
  40                   0.00    145.07      5.71      0.00
  50                   0.00    139.92     10.15      0.00
  60                   0.00    209.02     90.57      0.00
  601                  0.00    302.54    131.09      0.00
  61                   0.00    302.54    131.09      0.00
  101                252.63    146.01     45.07      0.00
  103                177.16    145.98     44.62      0.00
  105                180.04    147.30     51.48      0.00
  107                 72.67    147.29     54.29      0.00
  109                307.76    145.98     54.46      0.00
  111                188.78    146.59     59.18      0.00
  113                 26.61    146.63     62.67      0.00
  115                 69.29    147.39     57.80      0.00
  117                156.55    150.45     59.30      0.00
  119                234.25    157.86     67.53      0.00
  120                  0.00    155.46     67.36      0.00
  121                 55.37    161.26     70.74      0.00
  123                  0.00    165.71     67.04      0.00
  125                 60.65    160.65     64.84      0.00
  127                 23.49    158.86     44.57      0.00
  129                  0.00    158.85     46.73      0.00
  131                 56.86    158.83     66.22      0.00
  139                  7.83    153.21     52.96      0.00
  141                 13.10    149.21     62.92      0.00
  143                  8.25    138.25     61.85      0.00
  145                 36.75    150.46     64.76      0.00
  147                 11.37    151.40     57.59      0.00
  149                 36.00    151.80     58.84      0.00
  151                192.16    155.72     52.96      0.00
  153                 58.75    155.81     38.83      0.00
  157                 68.88    155.46     61.68      0.00
  159                 54.96    152.16     63.33      0.00
  161                 21.01    149.93     63.23      0.00
  163                 12.53    149.47     62.60      0.00
  164                  0.00    149.47     62.60      0.00
  166                  3.46    149.47     65.63      0.00
  167                 19.36    147.64     66.14      0.00
  169                  0.00    147.64     66.14      0.00
  171                 52.32    146.58     65.24      0.00
  173                  0.00    146.56     65.24      0.00
  177                 77.37    146.18     59.87      0.00
  179                  0.00    146.16     59.87      0.00
  181                  0.00    146.21     59.89      0.00
  183                  0.00    146.17     58.57      0.00
  184                  0.00    145.09     55.94      0.00
  185                 34.11    145.62     56.16      0.00
  187                  0.00    146.28     57.97      0.00
  189                143.53    146.57     61.77      0.00
  191                108.93    146.54     52.66      0.00
  193                 94.84    146.63     55.73      0.00
  195                  0.00    146.70     56.85      0.00
  197                 22.66    146.54     53.53      0.00
  199                158.70    141.82     62.32      0.00
  201                 59.33    141.16     61.12      0.00
  203               4084.25    141.02     60.24      0.00
  204                  0.00    146.05     54.18      0.00
  205                 86.93    141.77     52.33      0.00
  206                  0.00    140.78     60.57      0.00
  207                 92.29    141.08     57.23      0.00
  208                  0.00    140.45     53.92      0.00
  209                  1.16    139.86     61.47      0.00
  211                 11.53    139.67     57.49      0.00
  213                 18.54    139.60     57.45      0.00
  215                122.61    139.41     57.37      0.00
  217                 32.21    139.39     57.80      0.00
  219                 54.96    139.38     58.66      0.00
  225                 30.32    139.38     56.93      0.00
  229                 85.36    139.43     55.86      0.00
  231                 21.92    139.42     58.24      0.00
  237                 20.76    139.49     54.38      0.00
  239                 59.33    139.48     54.80      0.00
  241                  0.00    139.48     54.80      0.00
  243                  5.77    139.48     54.37      0.00
  247                 93.61    139.48     52.64      0.00
  249                  0.00    139.48     52.64      0.00
  251                 32.13    139.48     47.44      0.00
  253                 72.51    139.48     44.84      0.00
  255                 53.72    139.53     48.76      0.00
  257                  0.00    152.39     58.66      0.00
  259                  0.00    151.96     55.01      0.00
  261                  0.00    150.40     65.17      0.00
  263                  0.00    150.24     65.10      0.00
  265                  0.00    148.22     64.22      0.00
  267                  0.00    146.65     54.44      0.00
  269                  0.00    146.97     63.68      0.00
  271                  0.00    146.31     60.80      0.00
  273                  0.00    141.78     57.97      0.00
  275                  0.00    141.16     56.83      0.00
  River           -13149.63    220.00      0.00      0.00  Reservoir
  Lake                 0.00    167.00      0.00      0.00  Reservoir
  1                  578.00    145.07      5.71      0.00  Tank
  2                 -233.05    139.92     10.15      0.00  Tank
  3                 2327.32    158.07     12.60      0.00  Tank
   
   
  Link Results at 0:05:00 hrs:
  ----------------------------------------------
                       Flow  Velocity  Headloss
  Link                  gpm       fps   /1000ft
  ----------------------------------------------
  20               -2327.32      0.10      0.00
  40                -578.00      0.02      0.00
  50                 233.05      0.01      0.00
  60               13149.63      9.33      8.92
  101                  0.00      0.00      0.00
  103                166.45      0.27      0.02
  105               -419.09      1.19      0.51
  107                 31.85      0.09      0.00
  109                -10.70      0.02      0.00
  111               -318.46      0.90      0.30
  112                493.84      1.40      0.69
  113                -80.03      0.23      0.02
  114                123.23      0.79      0.38
  115                -40.82      0.26      0.05
  116                 16.59      0.05      0.00
  117                630.98      1.79      1.08
  119               -727.19      2.06      1.40
  120               1149.47      3.26      3.28
  121               1030.61      2.92      2.68
  122                365.25      2.33      2.83
  123               9738.72      4.42      1.70
  125              13149.63      5.97      2.97
  129               2990.29      2.12      0.66
  131               2714.64      1.93      0.55
  133              -2327.32      2.38      1.01
  135                363.84      0.26      0.01
  137                 56.86      0.09      0.00
  145                306.98      1.96      2.05
  147                299.15      1.91      1.95
  149               -632.71      4.04      7.82
  151               -624.46      3.99      7.64
  153                346.66      0.98      0.36
  155                383.41      1.09      0.43
  159               -394.78      1.12      0.45
  161               -430.78      2.75      3.84
  163               -156.26      0.44      0.08
  169                215.00      1.37      1.06
  171                466.69      1.32      0.62
  173               7888.31      3.58      1.15
  175               7819.43      3.55      1.13
  177               7764.48      3.52      1.12
  179               7493.35      3.40      1.05
  180                  3.46      0.01      0.00
  181                  3.46      0.01      0.00
  183               7269.44      3.30      0.99
  185                -19.36      0.12      0.01
  186                328.77      2.10      2.33
  187               6634.36      3.01      0.84
  189               4453.37      2.02      0.40
  191              -2128.67      1.51      0.35
  193              -1714.66      1.22      0.24
  195                559.27      1.59      0.86
  197                481.90      1.37      0.66
  199                -96.10      0.27      0.03
  201               -578.00      1.64      0.92
  202                511.53      3.26      5.28
  203                216.87      1.38      1.08
  204                511.53      1.45      0.73
  205                328.77      0.93      0.32
  207                312.97      0.89      0.29
  209                154.35      0.99      0.57
  211                615.72      1.75      1.03
  213                174.42      0.49      0.10
  215                140.40      0.40      0.07
  217               -239.38      0.68      0.18
  219               -250.12      0.71      0.19
  221                250.12      1.60      1.40
  223                 43.96      0.12      0.01
  225                 66.63      0.19      0.02
  229               4453.37      3.16      1.18
  231               4164.86      2.95      1.05
  233               4084.25      2.90      1.17
  235                129.81      0.37      0.06
  237                450.21      1.28      0.58
  238                483.40      1.37      0.66
  239                125.47      0.36      0.05
  240                483.40      1.37      0.66
  241                483.40      1.37      0.66
  243                482.24      0.77      0.16
  245                311.17      0.50      0.07
  247                240.10      0.38      0.04
  249                117.49      0.19      0.01
  251                 54.96      0.11      0.01
  257                 30.32      0.09      0.00
  261                 52.52      0.34      0.08
  263                 21.92      0.06      0.00
  269                159.54      0.45      0.08
  271                 54.76      0.35      0.08
  273                 84.03      0.24      0.03
  275                 12.86      0.04      0.00
  277                  5.77      0.02      0.00
  281                  7.08      0.03      0.00
  283                 11.84      0.03      0.00
  285                -20.87      0.06      0.00
  287                -65.65      0.27      0.04
  289                233.05      0.95      0.42
  291                 72.51      0.30      0.05
  293                 41.17      0.26      0.05
  295                 -9.03      0.03      0.00
  297                484.11      3.09      4.77
  299                232.59      1.48      1.23
  301                232.59      1.48      1.23
  303                251.53      1.61      1.42
  305                146.86      0.42      0.07
  307                398.39      1.13      0.46
  309                207.92      1.33      1.00
  311                -67.52      0.19      0.02
  313                470.46      1.33      0.63
  315              -2273.93      1.61      0.40
  317                104.20      0.67      0.28
  319                 25.62      0.07      0.00
  321               7477.36      3.39      1.04
  323                 21.28      0.06      0.00
  325                145.26      0.93      0.51
  329              13149.63      5.97      3.01
  330                  0.00      0.00      0.00
  333                 -0.00      0.00      0.00
  10                   0.00      0.00      0.00  Pump
  335              13149.63      0.00    -93.52  Pump
   
   
  Node Results at 0:10:00 hrs:
  --------------------------------------------------------
                     Demand      Head  Pressure  Chemical
  Node                  gpm        ft       psi      mg/L
  --------------------------------------------------------
  10                   0.00    146.06     -0.41      0.00
  15                 624.46    125.72     40.61      0.00
  20                   0.00    158.15     12.63      0.00
  35                1714.66    146.25     57.95      0.00
  40                   0.00    145.14      5.74      0.00
  50                   0.00    139.84     10.11      0.00
  60                   0.00    209.03     90.57      0.00
  601                  0.00    302.56    131.10      0.00
  61                   0.00    302.56    131.10      0.00
  101                252.63    146.06     45.09      0.00
  103                177.16    146.03     44.64      0.00
  105                180.04    147.35     51.50      0.00
  107                 72.67    147.34     54.31      0.00
  109                307.76    146.03     54.48      0.00
  111                188.78    146.64     59.21      0.00
  113                 26.61    146.68     62.69      0.00
  115                 69.29    147.44     57.82      0.00
  117                156.55    150.50     59.32      0.00
  119                234.25    157.91     67.56      0.00
  120                  0.00    155.52     67.39      0.00
  121                 55.37    161.32     70.77      0.00
  123                  0.00    165.77     67.06      0.00
  125                 60.65    160.71     64.87      0.00
  127                 23.49    158.93     44.60      0.00
  129                  0.00    158.92     46.76      0.00
  131                 56.86    158.90     66.25      0.00
  139                  7.83    153.28     52.98      0.00
  141                 13.10    149.27     62.95      0.00
  143                  8.25    138.32     61.88      0.00
  145                 36.75    150.52     64.79      0.00
  147                 11.37    151.46     57.61      0.00
  149                 36.00    151.86     58.87      0.00
  151                192.16    155.78     52.98      0.00
  153                 58.75    155.87     38.86      0.00
  157                 68.88    155.52     61.71      0.00
  159                 54.96    152.22     63.36      0.00
  161                 21.01    149.98     63.25      0.00
  163                 12.53    149.53     62.62      0.00
  164                  0.00    149.53     62.62      0.00
  166                  3.46    149.53     65.66      0.00
  167                 19.36    147.69     66.16      0.00
  169                  0.00    147.69     66.16      0.00
  171                 52.32    146.63     65.27      0.00
  173                  0.00    146.61     65.26      0.00
  177                 77.37    146.23     59.90      0.00
  179                  0.00    146.21     59.89      0.00
  181                  0.00    146.26     59.91      0.00
  183                  0.00    146.22     58.59      0.00
  184                  0.00    145.14     55.96      0.00
  185                 34.11    145.67     56.18      0.00
  187                  0.00    146.33     57.99      0.00
  189                143.53    146.62     61.80      0.00
  191                108.93    146.59     52.68      0.00
  193                 94.84    146.68     55.76      0.00
  195                  0.00    146.75     56.87      0.00
  197                 22.66    146.59     53.55      0.00
  199                158.70    141.85     62.33      0.00
  201                 59.33    141.19     61.13      0.00
  203               4084.25    141.05     60.25      0.00
  204                  0.00    146.10     54.20      0.00
  205                 86.93    141.81     52.35      0.00
  206                  0.00    140.80     60.57      0.00
  207                 92.29    141.10     57.24      0.00
  208                  0.00    140.45     53.92      0.00
  209                  1.16    139.84     61.46      0.00
  211                 11.53    139.64     57.47      0.00
  213                 18.54    139.57     57.44      0.00
  215                122.61    139.38     57.36      0.00
  217                 32.21    139.36     57.79      0.00
  219                 54.96    139.35     58.65      0.00
  225                 30.32    139.35     56.92      0.00
  229                 85.36    139.39     55.85      0.00
  231                 21.92    139.38     58.23      0.00
  237                 20.76    139.45     54.36      0.00
  239                 59.33    139.44     54.78      0.00
  241                  0.00    139.44     54.78      0.00
  243                  5.77    139.43     54.35      0.00
  247                 93.61    139.43     52.62      0.00
  249                  0.00    139.43     52.62      0.00
  251                 32.13    139.43     47.42      0.00
  253                 72.51    139.43     44.82      0.00
  255                 53.72    139.48     48.74      0.00
  257                  0.00    152.44     58.69      0.00
  259                  0.00    152.01     55.03      0.00
  261                  0.00    150.46     65.19      0.00
  263                  0.00    150.30     65.12      0.00
  265                  0.00    148.27     64.25      0.00
  267                  0.00    146.70     54.47      0.00
  269                  0.00    147.02     63.70      0.00
  271                  0.00    146.36     60.82      0.00
  273                  0.00    141.81     57.98      0.00
  275                  0.00    141.19     56.84      0.00
  River           -13147.63    220.00      0.00      0.00  Reservoir
  Lake                 0.00    167.00      0.00      0.00  Reservoir
  1                  572.98    145.14      5.74      0.00  Tank
  2                 -224.03    139.84     10.11      0.00  Tank
  3                 2321.32    158.15     12.63      0.00  Tank
   
   
  Link Results at 0:10:00 hrs:
  ----------------------------------------------
                       Flow  Velocity  Headloss
  Link                  gpm       fps   /1000ft
  ----------------------------------------------
  20               -2321.32      0.10      0.00
  40                -572.98      0.02      0.00
  50                 224.03      0.01      0.00
  60               13147.63      9.32      8.91
  101                  0.00      0.00      0.00
  103                166.58      0.27      0.02
  105               -419.21      1.19      0.51
  107                 31.93      0.09      0.00
  109                -10.58      0.02      0.00
  111               -318.34      0.90      0.30
  112                494.12      1.40      0.69
  113                -79.83      0.23      0.02
  114                123.32      0.79      0.38
  115                -40.75      0.26      0.05
  116                 16.88      0.05      0.00
  117                631.18      1.79      1.08
  119               -727.48      2.06      1.41
  120               1149.83      3.26      3.28
  121               1030.94      2.92      2.68
  122                365.38      2.33      2.83
  123               9742.40      4.42      1.70
  125              13147.63      5.97      2.97
  129               2984.49      2.12      0.66
  131               2708.76      1.92      0.55
  133              -2321.32      2.37      1.00
  135                363.95      0.26      0.01
  137                 56.86      0.09      0.00
  145                307.09      1.96      2.05
  147                299.26      1.91      1.96
  149               -632.71      4.04      7.82
  151               -624.46      3.99      7.64
  153                346.55      0.98      0.36
  155                383.29      1.09      0.43
  159               -394.67      1.12      0.45
  161               -430.67      2.75      3.84
  163               -156.33      0.44      0.08
  169                215.07      1.37      1.06
  171                466.50      1.32      0.62
  173               7891.81      3.58      1.15
  175               7822.93      3.55      1.13
  177               7767.98      3.53      1.12
  179               7496.80      3.40      1.05
  180                  3.46      0.01      0.00
  181                  3.46      0.01      0.00
  183               7272.91      3.30      0.99
  185                -19.36      0.12      0.01
  186                329.28      2.10      2.33
  187               6637.95      3.01      0.84
  189               4461.24      2.02      0.40
  191              -2124.39      1.51      0.35
  193              -1714.66      1.22      0.24
  195                555.02      1.57      0.85
  197                477.66      1.36      0.64
  199                -95.32      0.27      0.03
  201               -572.98      1.63      0.90
  202                512.67      3.27      5.30
  203                217.50      1.39      1.08
  204                512.67      1.45      0.74
  205                329.28      0.93      0.32
  207                312.82      0.89      0.29
  209                154.54      0.99      0.58
  211                615.59      1.75      1.03
  213                174.74      0.50      0.10
  215                140.59      0.40      0.07
  217               -239.51      0.68      0.18
  219               -250.16      0.71      0.19
  221                250.16      1.60      1.40
  223                 44.16      0.13      0.01
  225                 66.83      0.19      0.02
  229               4461.24      3.16      1.19
  231               4170.95      2.96      1.05
  233               4084.25      2.90      1.17
  235                131.60      0.37      0.06
  237                453.04      1.29      0.58
  238                492.41      1.40      0.68
  239                131.66      0.37      0.06
  240                492.41      1.40      0.68
  241                492.41      1.40      0.68
  243                491.26      0.78      0.17
  245                312.90      0.50      0.07
  247                240.10      0.38      0.04
  249                117.49      0.19      0.01
  251                 54.96      0.11      0.01
  257                 30.32      0.09      0.00
  261                 54.25      0.35      0.08
  263                 21.92      0.06      0.00
  269                166.83      0.47      0.09
  271                 53.03      0.34      0.08
  273                 93.04      0.26      0.03
  275                 16.22      0.05      0.00
  277                  5.77      0.02      0.00
  281                 10.45      0.04      0.00
  283                 17.49      0.05      0.00
  285                -23.12      0.07      0.00
  287                -60.04      0.25      0.03
  289                224.03      0.92      0.39
  291                 72.51      0.30      0.05
  293                 37.76      0.24      0.04
  295                 -5.63      0.02      0.00
  297                484.27      3.09      4.77
  299                232.66      1.49      1.23
  301                232.66      1.49      1.23
  303                251.61      1.61      1.42
  305                146.91      0.42      0.07
  307                398.52      1.13      0.46
  309                207.90      1.33      1.00
  311                -67.31      0.19      0.02
  313                470.30      1.33      0.63
  315              -2269.68      1.61      0.40
  317                104.29      0.67      0.28
  319                 27.30      0.08      0.00
  321               7480.81      3.40      1.04
  323                 27.37      0.08      0.00
  325                145.29      0.93      0.51
  329              13147.63      5.97      3.01
  330                  0.00      0.00      0.00
  333                 -0.00      0.00      0.00
  10                   0.00      0.00      0.00  Pump
  335              13147.63      0.00    -93.53  Pump
   
   
  Node Results at 0:15:00 hrs:
  --------------------------------------------------------
                     Demand      Head  Pressure  Chemical
  Node                  gpm        ft       psi      mg/L
  --------------------------------------------------------
  10                   0.00    146.11     -0.38      0.00
  15                 624.46    125.78     40.63      0.00
  20                   0.00    158.22     12.66      0.00
  35                1714.66    146.30     57.98      0.00
  40                   0.00    145.20      5.76      0.00
  50                   0.00    139.76     10.08      0.00
  60                   0.00    209.03     90.57      0.00
  601                  0.00    302.58    131.11      0.00
  61                   0.00    302.58    131.11      0.00
  101                252.63    146.11     45.11      0.00
  103                177.16    146.08     44.67      0.00
  105                180.04    147.40     51.52      0.00
  107                 72.67    147.40     54.33      0.00
  109                307.76    146.08     54.50      0.00
  111                188.78    146.69     59.23      0.00
  113                 26.61    146.73     62.71      0.00
  115                 69.29    147.49     57.84      0.00
  117                156.55    150.56     59.34      0.00
  119                234.25    157.97     67.58      0.00
  120                  0.00    155.58     67.41      0.00
  121                 55.37    161.38     70.79      0.00
  123                  0.00    165.83     67.09      0.00
  125                 60.65    160.77     64.90      0.00
  127                 23.49    159.00     44.63      0.00
  129                  0.00    158.99     46.79      0.00
  131                 56.86    158.97     66.28      0.00
  139                  7.83    153.35     53.01      0.00
  141                 13.10    149.33     62.97      0.00
  143                  8.25    138.38     61.91      0.00
  145                 36.75    150.58     64.81      0.00
  147                 11.37    151.53     57.64      0.00
  149                 36.00    151.93     58.90      0.00
  151                192.16    155.84     53.01      0.00
  153                 58.75    155.93     38.88      0.00
  157                 68.88    155.57     61.73      0.00
  159                 54.96    152.27     63.38      0.00
  161                 21.01    150.03     63.27      0.00
  163                 12.53    149.58     62.65      0.00
  164                  0.00    149.58     62.65      0.00
  166                  3.46    149.58     65.68      0.00
  167                 19.36    147.74     66.18      0.00
  169                  0.00    147.74     66.18      0.00
  171                 52.32    146.67     65.29      0.00
  173                  0.00    146.65     65.28      0.00
  177                 77.37    146.28     59.92      0.00
  179                  0.00    146.26     59.91      0.00
  181                  0.00    146.31     59.93      0.00
  183                  0.00    146.27     58.61      0.00
  184                  0.00    145.18     55.97      0.00
  185                 34.11    145.71     56.21      0.00
  187                  0.00    146.38     58.01      0.00
  189                143.53    146.67     61.82      0.00
  191                108.93    146.64     52.70      0.00
  193                 94.84    146.73     55.78      0.00
  195                  0.00    146.80     56.89      0.00
  197                 22.66    146.65     53.58      0.00
  199                158.70    141.88     62.35      0.00
  201                 59.33    141.22     61.15      0.00
  203               4084.25    141.08     60.26      0.00
  204                  0.00    146.14     54.23      0.00
  205                 86.93    141.84     52.36      0.00
  206                  0.00    140.81     60.58      0.00
  207                 92.29    141.13     57.25      0.00
  208                  0.00    140.45     53.92      0.00
  209                  1.16    139.83     61.45      0.00
  211                 11.53    139.62     57.46      0.00
  213                 18.54    139.55     57.43      0.00
  215                122.61    139.35     57.35      0.00
  217                 32.21    139.33     57.77      0.00
  219                 54.96    139.32     58.64      0.00
  225                 30.32    139.33     56.90      0.00
  229                 85.36    139.35     55.83      0.00
  231                 21.92    139.35     58.21      0.00
  237                 20.76    139.41     54.34      0.00
  239                 59.33    139.39     54.77      0.00
  241                  0.00    139.39     54.77      0.00
  243                  5.77    139.39     54.33      0.00
  247                 93.61    139.39     52.60      0.00
  249                  0.00    139.39     52.60      0.00
  251                 32.13    139.39     47.40      0.00
  253                 72.51    139.38     44.79      0.00
  255                 53.72    139.43     48.72      0.00
  257                  0.00    152.50     58.71      0.00
  259                  0.00    152.07     55.06      0.00
  261                  0.00    150.51     65.22      0.00
  263                  0.00    150.35     65.15      0.00
  265                  0.00    148.32     64.27      0.00
  267                  0.00    146.75     54.49      0.00
  269                  0.00    147.07     63.73      0.00
  271                  0.00    146.41     60.84      0.00
  273                  0.00    141.84     57.99      0.00
  275                  0.00    141.22     56.86      0.00
  River           -13145.63    220.00      0.00      0.00  Reservoir
  Lake                 0.00    167.00      0.00      0.00  Reservoir
  1                  568.12    145.20      5.76      0.00  Tank
  2                 -215.24    139.76     10.08      0.00  Tank
  3                 2315.40    158.22     12.66      0.00  Tank
   
   
  Link Results at 0:15:00 hrs:
  ----------------------------------------------
                       Flow  Velocity  Headloss
  Link                  gpm       fps   /1000ft
  ----------------------------------------------
  20               -2315.40      0.10      0.00
  40                -568.12      0.02      0.00
  50                 215.24      0.01      0.00
  60               13145.63      9.32      8.91
  101                  0.00      0.00      0.00
  103                166.70      0.27      0.02
  105               -419.33      1.19      0.51
  107                 32.00      0.09      0.00
  109                -10.46      0.02      0.00
  111               -318.22      0.90      0.30
  112                494.39      1.40      0.69
  113                -79.64      0.23      0.02
  114                123.41      0.79      0.38
  115                -40.67      0.26      0.05
  116                 17.16      0.05      0.00
  117                631.38      1.79      1.08
  119               -727.76      2.06      1.41
  120               1150.19      3.26      3.28
  121               1031.27      2.93      2.68
  122                365.50      2.33      2.83
  123               9746.02      4.42      1.70
  125              13145.63      5.97      2.97
  129               2978.74      2.11      0.65
  131               2702.95      1.92      0.55
  133              -2315.40      2.36      1.00
  135                364.06      0.26      0.01
  137                 56.86      0.09      0.00
  145                307.21      1.96      2.05
  147                299.37      1.91      1.96
  149               -632.71      4.04      7.82
  151               -624.46      3.99      7.64
  153                346.43      0.98      0.36
  155                383.18      1.09      0.43
  159               -394.55      1.12      0.45
  161               -430.56      2.75      3.84
  163               -156.40      0.44      0.08
  169                215.14      1.37      1.06
  171                466.32      1.32      0.62
  173               7895.26      3.58      1.15
  175               7826.38      3.55      1.14
  177               7771.42      3.53      1.12
  179               7500.20      3.40      1.05
  180                  3.46      0.01      0.00
  181                  3.46      0.01      0.00
  183               7276.32      3.30      0.99
  185                -19.36      0.12      0.01
  186                329.79      2.10      2.34
  187               6641.48      3.01      0.84
  189               4468.91      2.03      0.40
  191              -2120.24      1.50      0.35
  193              -1714.66      1.22      0.24
  195                550.91      1.56      0.84
  197                473.55      1.34      0.63
  199                -94.57      0.27      0.03
  201               -568.12      1.61      0.89
  202                513.78      3.28      5.32
  203                218.10      1.39      1.09
  204                513.78      1.46      0.74
  205                329.79      0.94      0.32
  207                312.68      0.89      0.29
  209                154.72      0.99      0.58
  211                615.48      1.75      1.03
  213                175.07      0.50      0.10
  215                140.79      0.40      0.07
  217               -239.63      0.68      0.18
  219               -250.21      0.71      0.19
  221                250.21      1.60      1.40
  223                 44.36      0.13      0.01
  225                 67.03      0.19      0.02
  229               4468.91      3.17      1.19
  231               4176.83      2.96      1.05
  233               4084.25      2.90      1.17
  235                133.39      0.38      0.06
  237                455.85      1.29      0.59
  238                501.20      1.42      0.71
  239                137.64      0.39      0.06
  240                501.20      1.42      0.71
  241                501.20      1.42      0.71
  243                500.04      0.80      0.17
  245                314.62      0.50      0.07
  247                240.10      0.38      0.04
  249                117.49      0.19      0.01
  251                 54.96      0.11      0.01
  257                 30.32      0.09      0.00
  261                 55.97      0.36      0.09
  263                 21.92      0.06      0.00
  269                173.90      0.49      0.10
  271                 51.31      0.33      0.07
  273                101.83      0.29      0.04
  275                 19.50      0.06      0.00
  277                  5.77      0.02      0.00
  281                 13.73      0.06      0.00
  283                 23.00      0.07      0.00
  285                -25.28      0.07      0.00
  287                -54.60      0.22      0.03
  289                215.24      0.88      0.36
  291                 72.51      0.30      0.05
  293                 34.41      0.22      0.04
  295                 -2.28      0.01      0.00
  297                484.42      3.09      4.77
  299                232.74      1.49      1.23
  301                232.74      1.49      1.23
  303                251.69      1.61      1.42
  305                146.96      0.42      0.07
  307                398.64      1.13      0.46
  309                207.89      1.33      1.00
  311                -67.10      0.19      0.02
  313                470.15      1.33      0.63
  315              -2265.57      1.61      0.39
  317                104.39      0.67      0.28
  319                 29.00      0.08      0.00
  321               7484.21      3.40      1.05
  323                 33.25      0.09      0.00
  325                145.33      0.93      0.51
  329              13145.63      5.97      3.01
  330                  0.00      0.00      0.00
  333                 -0.00      0.00      0.00
  10                   0.00      0.00      0.00  Pump
  335              13145.63      0.00    -93.55  Pump
   
   
  Node Results at 0:20:00 hrs:
  --------------------------------------------------------
                     Demand      Head  Pressure  Chemical
  Node                  gpm        ft       psi      mg/L
  --------------------------------------------------------
  10                   0.00    146.17     -0.36      0.00
  15                 624.46    125.84     40.66      0.00
  20                   0.00    158.29     12.69      0.00
  35                1714.66    146.35     58.00      0.00
  40                   0.00    145.27      5.79      0.00
  50                   0.00    139.69     10.05      0.00
  60                   0.00    209.03     90.57      0.00
  601                  0.00    302.60    131.12      0.00
  61                   0.00    302.60    131.12      0.00
  101                252.63    146.17     45.14      0.00
  103                177.16    146.14     44.69      0.00
  105                180.04    147.45     51.54      0.00
  107                 72.67    147.45     54.36      0.00
  109                307.76    146.14     54.52      0.00
  111                188.78    146.74     59.25      0.00
  113                 26.61    146.78     62.73      0.00
  115                 69.29    147.54     57.86      0.00
  117                156.55    150.61     59.37      0.00
  119                234.25    158.03     67.61      0.00
  120                  0.00    155.63     67.44      0.00
  121                 55.37    161.44     70.82      0.00
  123                  0.00    165.89     67.11      0.00
  125                 60.65    160.84     64.92      0.00
  127                 23.49    159.07     44.66      0.00
  129                  0.00    159.06     46.82      0.00
  131                 56.86    159.04     66.31      0.00
  139                  7.83    153.41     53.04      0.00
  141                 13.10    149.40     63.00      0.00
  143                  8.25    138.44     61.94      0.00
  145                 36.75    150.65     64.84      0.00
  147                 11.37    151.59     57.67      0.00
  149                 36.00    151.99     58.92      0.00
  151                192.16    155.90     53.03      0.00
  153                 58.75    155.99     38.91      0.00
  157                 68.88    155.63     61.76      0.00
  159                 54.96    152.32     63.40      0.00
  161                 21.01    150.08     63.30      0.00
  163                 12.53    149.63     62.67      0.00
  164                  0.00    149.63     62.67      0.00
  166                  3.46    149.63     65.70      0.00
  167                 19.36    147.79     66.20      0.00
  169                  0.00    147.79     66.20      0.00
  171                 52.32    146.72     65.31      0.00
  173                  0.00    146.70     65.30      0.00
  177                 77.37    146.33     59.94      0.00
  179                  0.00    146.31     59.93      0.00
  181                  0.00    146.36     59.95      0.00
  183                  0.00    146.32     58.63      0.00
  184                  0.00    145.23     55.99      0.00
  185                 34.11    145.76     56.23      0.00
  187                  0.00    146.43     58.03      0.00
  189                143.53    146.72     61.84      0.00
  191                108.93    146.69     52.73      0.00
  193                 94.84    146.78     55.80      0.00
  195                  0.00    146.85     56.91      0.00
  197                 22.66    146.70     53.60      0.00
  199                158.70    141.92     62.36      0.00
  201                 59.33    141.25     61.16      0.00
  203               4084.25    141.11     60.28      0.00
  204                  0.00    146.19     54.25      0.00
  205                 86.93    141.87     52.37      0.00
  206                  0.00    140.83     60.59      0.00
  207                 92.29    141.15     57.26      0.00
  208                  0.00    140.45     53.93      0.00
  209                  1.16    139.81     61.45      0.00
  211                 11.53    139.59     57.45      0.00
  213                 18.54    139.52     57.42      0.00
  215                122.61    139.33     57.34      0.00
  217                 32.21    139.31     57.76      0.00
  219                 54.96    139.30     58.63      0.00
  225                 30.32    139.30     56.89      0.00
  229                 85.36    139.32     55.82      0.00
  231                 21.92    139.31     58.20      0.00
  237                 20.76    139.37     54.32      0.00
  239                 59.33    139.35     54.75      0.00
  241                  0.00    139.35     54.75      0.00
  243                  5.77    139.35     54.31      0.00
  247                 93.61    139.35     52.58      0.00
  249                  0.00    139.35     52.58      0.00
  251                 32.13    139.35     47.38      0.00
  253                 72.51    139.33     44.77      0.00
  255                 53.72    139.38     48.69      0.00
  257                  0.00    152.55     58.73      0.00
  259                  0.00    152.12     55.08      0.00
  261                  0.00    150.56     65.24      0.00
  263                  0.00    150.40     65.17      0.00
  265                  0.00    148.37     64.29      0.00
  267                  0.00    146.80     54.51      0.00
  269                  0.00    147.12     63.75      0.00
  271                  0.00    146.46     60.86      0.00
  273                  0.00    141.87     58.01      0.00
  275                  0.00    141.25     56.87      0.00
  River           -13143.63    220.00      0.00      0.00  Reservoir
  Lake                 0.00    167.00      0.00      0.00  Reservoir
  1                  563.42    145.27      5.79      0.00  Tank
  2                 -206.67    139.69     10.05      0.00  Tank
  3                 2309.53    158.29     12.69      0.00  Tank
   
   
  Link Results at 0:20:00 hrs:
  ----------------------------------------------
                       Flow  Velocity  Headloss
  Link                  gpm       fps   /1000ft
  ----------------------------------------------
  20               -2309.53      0.10      0.00
  40                -563.42      0.02      0.00
  50                 206.67      0.01      0.00
  60               13143.63      9.32      8.91
  101                  0.00      0.00      0.00
  103                166.82      0.27      0.02
  105               -419.45      1.19      0.51
  107                 32.08      0.09      0.00
  109                -10.34      0.02      0.00
  111               -318.10      0.90      0.30
  112                494.66      1.40      0.69
  113                -79.44      0.23      0.02
  114                123.50      0.79      0.38
  115                -40.59      0.26      0.05
  116                 17.44      0.05      0.00
  117                631.58      1.79      1.08
  119               -728.04      2.07      1.41
  120               1150.54      3.26      3.29
  121               1031.59      2.93      2.68
  122                365.63      2.33      2.83
  123               9749.58      4.43      1.71
  125              13143.63      5.97      2.97
  129               2973.05      2.11      0.65
  131               2697.19      1.91      0.54
  133              -2309.53      2.36      0.99
  135                364.17      0.26      0.01
  137                 56.86      0.09      0.00
  145                307.32      1.96      2.05
  147                299.48      1.91      1.96
  149               -632.71      4.04      7.82
  151               -624.46      3.99      7.64
  153                346.32      0.98      0.36
  155                383.07      1.09      0.43
  159               -394.44      1.12      0.45
  161               -430.45      2.75      3.83
  163               -156.47      0.44      0.08
  169                215.21      1.37      1.06
  171                466.14      1.32      0.62
  173               7898.65      3.59      1.15
  175               7829.77      3.55      1.14
  177               7774.81      3.53      1.12
  179               7503.55      3.41      1.05
  180                  3.46      0.01      0.00
  181                  3.46      0.01      0.00
  183               7279.68      3.30      0.99
  185                -19.36      0.12      0.01
  186                330.29      2.11      2.35
  187               6644.95      3.02      0.84
  189               4476.40      2.03      0.40
  191              -2116.23      1.50      0.35
  193              -1714.66      1.22      0.23
  195                546.94      1.55      0.83
  197                469.57      1.33      0.63
  199                -93.85      0.27      0.03
  201               -563.42      1.60      0.88
  202                514.87      3.29      5.34
  203                218.70      1.40      1.09
  204                514.87      1.46      0.74
  205                330.29      0.94      0.33
  207                312.54      0.89      0.29
  209                154.91      0.99      0.58
  211                615.37      1.75      1.03
  213                175.38      0.50      0.10
  215                140.98      0.40      0.07
  217               -239.75      0.68      0.18
  219               -250.26      0.71      0.19
  221                250.26      1.60      1.40
  223                 44.56      0.13      0.01
  225                 67.22      0.19      0.02
  229               4476.40      3.17      1.20
  231               4182.52      2.97      1.05
  233               4084.25      2.90      1.17
  235                135.18      0.38      0.06
  237                458.64      1.30      0.60
  238                509.77      1.45      0.73
  239                143.42      0.41      0.07
  240                509.77      1.45      0.73
  241                509.77      1.45      0.73
  243                508.62      0.81      0.18
  245                316.33      0.50      0.07
  247                240.10      0.38      0.04
  249                117.49      0.19      0.01
  251                 54.96      0.11      0.01
  257                 30.32      0.09      0.00
  261                 57.68      0.37      0.09
  263                 21.92      0.06      0.00
  269                180.76      0.51      0.11
  271                 49.60      0.32      0.07
  273                110.40      0.31      0.04
  275                 22.71      0.06      0.00
  277                  5.77      0.02      0.00
  281                 16.93      0.07      0.00
  283                 28.36      0.08      0.00
  285                -27.34      0.08      0.00
  287                -49.33      0.20      0.02
  289                206.67      0.84      0.33
  291                 72.51      0.30      0.05
  293                 31.11      0.20      0.03
  295                  1.02      0.00      0.00
  297                484.58      3.09      4.77
  299                232.81      1.49      1.23
  301                232.81      1.49      1.23
  303                251.77      1.61      1.42
  305                147.00      0.42      0.07
  307                398.77      1.13      0.46
  309                207.88      1.33      1.00
  311                -66.90      0.19      0.02
  313                470.00      1.33      0.63
  315              -2261.60      1.60      0.39
  317                104.49      0.67      0.28
  319                 30.70      0.09      0.00
  321               7487.56      3.40      1.05
  323                 38.94      0.11      0.01
  325                145.37      0.93      0.51
  329              13143.63      5.97      3.00
  330                  0.00      0.00      0.00
  333                 -0.00      0.00      0.00
  10                   0.00      0.00      0.00  Pump
  335              13143.63      0.00    -93.57  Pump
   
   
  Node Results at 0:25:00 hrs:
  --------------------------------------------------------
                     Demand      Head  Pressure  Chemical
  Node                  gpm        ft       psi      mg/L
  --------------------------------------------------------
  10                   0.00    146.22     -0.34      0.00
  15                 624.46    125.90     40.69      0.00
  20                   0.00    158.37     12.72      0.00
  35                1714.66    146.40     58.02      0.00
  40                   0.00    145.34      5.82      0.00
  50                   0.00    139.62     10.02      0.00
  60                   0.00    209.04     90.58      0.00
  601                  0.00    302.62    131.13      0.00
  61                   0.00    302.62    131.13      0.00
  101                252.63    146.22     45.16      0.00
  103                177.16    146.19     44.71      0.00
  105                180.04    147.51     51.57      0.00
  107                 72.67    147.50     54.38      0.00
  109                307.76    146.19     54.55      0.00
  111                188.78    146.79     59.27      0.00
  113                 26.61    146.83     62.76      0.00
  115                 69.29    147.59     57.89      0.00
  117                156.55    150.67     59.39      0.00
  119                234.25    158.09     67.63      0.00
  120                  0.00    155.69     67.46      0.00
  121                 55.37    161.50     70.85      0.00
  123                  0.00    165.95     67.14      0.00
  125                 60.65    160.90     64.95      0.00
  127                 23.49    159.14     44.69      0.00
  129                  0.00    159.13     46.85      0.00
  131                 56.86    159.11     66.34      0.00
  139                  7.83    153.48     53.07      0.00
  141                 13.10    149.46     63.03      0.00
  143                  8.25    138.51     61.96      0.00
  145                 36.75    150.71     64.87      0.00
  147                 11.37    151.65     57.69      0.00
  149                 36.00    152.05     58.95      0.00
  151                192.16    155.96     53.06      0.00
  153                 58.75    156.05     38.93      0.00
  157                 68.88    155.69     61.78      0.00
  159                 54.96    152.38     63.42      0.00
  161                 21.01    150.13     63.32      0.00
  163                 12.53    149.68     62.69      0.00
  164                  0.00    149.68     62.69      0.00
  166                  3.46    149.68     65.72      0.00
  167                 19.36    147.84     66.22      0.00
  169                  0.00    147.84     66.22      0.00
  171                 52.32    146.77     65.33      0.00
  173                  0.00    146.75     65.32      0.00
  177                 77.37    146.38     59.96      0.00
  179                  0.00    146.36     59.95      0.00
  181                  0.00    146.41     59.97      0.00
  183                  0.00    146.37     58.66      0.00
  184                  0.00    145.27     56.01      0.00
  185                 34.11    145.81     56.25      0.00
  187                  0.00    146.48     58.05      0.00
  189                143.53    146.77     61.86      0.00
  191                108.93    146.74     52.75      0.00
  193                 94.84    146.83     55.82      0.00
  195                  0.00    146.90     56.94      0.00
  197                 22.66    146.75     53.62      0.00
  199                158.70    141.95     62.37      0.00
  201                 59.33    141.29     61.18      0.00
  203               4084.25    141.15     60.29      0.00
  204                  0.00    146.24     54.27      0.00
  205                 86.93    141.90     52.39      0.00
[...]
  219                 73.14    136.92     57.60      0.00
  225                 40.36    136.93     55.87      0.00
  229                113.60    137.18     54.89      0.00
  231                 29.17    137.17     57.27      0.00
  237                 27.63    137.37     53.46      0.00
  239                 78.96    137.38     53.89      0.00
  241                  0.00    137.38     53.89      0.00
  243                  7.68    137.38     53.46      0.00
  247                124.57    137.40     51.73      0.00
  249                  0.00    137.40     51.73      0.00
  251                 42.76    137.43     46.55      0.00
  253                 96.50    137.73     44.08      0.00
  255                 71.49    137.82     48.02      0.00
  257                  0.00    150.73     57.95      0.00
  259                  0.00    150.23     54.26      0.00
  261                  0.00    148.43     64.32      0.00
  263                  0.00    148.24     64.23      0.00
  265                  0.00    147.35     63.85      0.00
  267                  0.00    145.46     53.93      0.00
  269                  0.00    146.02     63.27      0.00
  271                  0.00    145.59     60.49      0.00
  273                  0.00    139.57     57.01      0.00
  275                  0.00    138.79     55.80      0.00
  River           -13209.34    220.00      0.00      0.00  Reservoir
  Lake                 0.00    167.00      0.00      0.00  Reservoir
  1                 -820.06    147.67      6.83      0.00  Tank
  2                 -484.76    139.31      9.88      0.00  Tank
  3                  232.93    160.44     13.62      0.00  Tank
   
   
  Link Results at 23:55:00 hrs:
  ----------------------------------------------
                       Flow  Velocity  Headloss
  Link                  gpm       fps   /1000ft
  ----------------------------------------------
  20                -232.93      0.01      0.00
  40                 820.06      0.03      0.00
  50                 484.76      0.02      0.00
  60               13209.34      9.37      8.99
  101                  0.00      0.00      0.00
  103                129.86      0.21      0.01
  105               -466.08      1.32      0.62
  107                -13.30      0.04      0.00
  109               -105.90      0.17      0.01
  111               -515.48      1.46      0.74
  112                446.22      1.27      0.57
  113               -210.15      0.60      0.14
  114                 90.02      0.57      0.21
  115               -110.02      0.70      0.31
  116               -155.54      0.44      0.08
  117                692.38      1.96      1.28
  119               -738.48      2.09      1.45
  120               1256.31      3.56      3.87
  121               1115.00      3.16      3.10
  122                382.90      2.44      3.09
  123               9893.90      4.49      1.75
  125              11223.56      5.09      2.21
  129                873.08      0.62      0.07
  131                582.71      0.41      0.03
  133               -232.93      0.24      0.01
  135                318.53      0.23      0.01
  137                 75.67      0.12      0.01
  145                242.86      1.55      1.33
  147                232.43      1.48      1.22
  149               -326.64      2.08      2.30
  151               -315.67      2.01      2.16
  153                111.64      0.32      0.04
  155                160.55      0.46      0.09
  159               -175.68      0.50      0.10
  161               -223.60      1.43      1.14
  163               -131.47      0.37      0.06
  169                209.65      1.34      1.01
  171                347.85      0.99      0.36
  173               7977.99      3.62      1.18
  175               7886.32      3.58      1.15
  177               7813.19      3.55      1.13
  179               7507.52      3.41      1.05
  180                  4.60      0.01      0.00
  181                  4.60      0.01      0.00
  183               7256.58      3.29      0.99
  185                -25.77      0.16      0.02
  186                291.41      1.86      1.86
  187               6579.08      2.99      0.82
  189               5091.47      2.31      0.51
  191              -1417.98      1.01      0.17
  193              -1916.32      1.36      0.29
  195               -383.21      1.09      0.43
  197               -486.17      1.38      0.67
  199                333.89      0.95      0.33
  201                820.06      2.33      1.76
  202                574.21      3.67      6.54
  203                328.20      2.09      2.32
  204                574.21      1.63      0.91
  205                291.41      0.83      0.26
  207                 -5.69      0.02      0.00
  209                241.01      1.54      1.31
  211                651.72      1.85      1.15
  213                 50.39      0.14      0.01
  215               -110.25      0.31      0.04
  217               -335.86      0.95      0.34
  219               -277.70      0.79      0.24
  221                277.70      1.77      1.70
  223               -140.50      0.40      0.07
  225               -110.34      0.31      0.04
  229               5091.47      3.61      1.52
  231               4727.44      3.35      1.32
  233               4668.31      3.31      1.50
  235                152.83      0.43      0.08
  237                493.49      1.40      0.69
  238                468.71      1.33      0.62
  239                 98.04      0.28      0.03
  240                468.71      1.33      0.62
  241                468.71      1.33      0.62
  243                467.17      0.75      0.15
  245                388.18      0.62      0.11
  247                319.54      0.51      0.08
  249                156.36      0.25      0.02
  251                 73.14      0.15      0.01
  257                 40.36      0.11      0.01
  261                 43.97      0.28      0.06
  263                 29.17      0.08      0.00
  269                 63.64      0.18      0.02
  271                 98.80      0.63      0.25
  273                -62.79      0.18      0.02
  275                -48.36      0.14      0.01
  277                  7.68      0.02      0.00
  281                -56.04      0.23      0.03
  283                -93.39      0.26      0.03
  285                 16.73      0.05      0.00
  287               -197.35      0.81      0.31
  289                484.76      1.98      1.61
  291                 96.50      0.39      0.08
  293                119.42      0.76      0.36
  295                -76.66      0.22      0.02
  297                524.21      3.35      5.52
  299                252.06      1.61      1.42
  301                252.06      1.61      1.42
  303                272.14      1.74      1.64
  305                168.17      0.48      0.09
  307                440.31      1.25      0.55
  309                229.67      1.47      1.20
  311               -339.92      0.96      0.34
  313                536.59      1.52      0.80
  315              -1533.11      1.09      0.19
  317                117.86      0.75      0.35
  319                 34.97      0.10      0.01
  321               7486.25      3.40      1.05
  323                -19.83      0.06      0.00
  325                115.13      0.73      0.33
  329              13209.34      6.00      3.03
  330                  0.00      0.00      0.00
  333                 -0.00      0.00      0.00
  10                   0.00      0.00      0.00  Pump
  335              13209.34      0.00    -92.99  Pump
   
   
  Node Results at 24:00:00 hrs:
  --------------------------------------------------------
                     Demand      Head  Pressure  Chemical
  Node                  gpm        ft       psi      mg/L
  --------------------------------------------------------
  10                   0.00    148.04      0.45      0.00
  15                 624.46    127.84     41.53      0.00
  20                   0.00    160.45     13.63      0.00
  35                1714.66    148.23     58.81      0.00
  40                   0.00    147.57      6.79      0.00
  50                   0.00    139.14      9.81      0.00
  60                   0.00    209.13     90.62      0.00
  601                  0.00    303.27    131.41      0.00
  61                   0.00    303.27    131.41      0.00
  101                252.63    148.04     45.95      0.00
  103                177.16    148.01     45.50      0.00
  105                180.04    149.34     52.36      0.00
  107                 72.67    149.33     55.17      0.00
  109                307.76    148.01     55.34      0.00
  111                188.78    148.62     60.06      0.00
  113                 26.61    148.66     63.55      0.00
  115                 69.29    149.42     58.68      0.00
  117                156.55    152.51     60.19      0.00
  119                234.25    159.96     68.44      0.00
  120                  0.00    157.55     68.27      0.00
  121                 55.37    163.39     71.66      0.00
  123                  0.00    167.80     67.94      0.00
  125                 60.65    162.82     65.78      0.00
  127                 23.49    161.17     45.57      0.00
  129                  0.00    161.16     47.73      0.00
  131                 56.86    161.14     67.22      0.00
  139                  7.83    155.45     53.93      0.00
  141                 13.10    151.40     63.87      0.00
  143                  8.25    140.44     62.80      0.00
  145                 36.75    152.63     65.70      0.00
  147                 11.37    153.57     58.53      0.00
  149                 36.00    153.96     59.78      0.00
  151                192.16    157.85     53.88      0.00
  153                 58.75    157.94     39.75      0.00
  157                 68.88    157.54     62.59      0.00
  159                 54.96    154.21     64.22      0.00
  161                 21.01    151.96     64.11      0.00
  163                 12.53    151.50     63.48      0.00
  164                  0.00    151.50     63.48      0.00
  166                  3.46    151.50     66.51      0.00
  167                 19.36    149.65     67.01      0.00
  169                  0.00    149.65     67.01      0.00
  171                 52.32    148.57     66.11      0.00
  173                  0.00    148.55     66.10      0.00
  177                 77.37    148.22     60.76      0.00
  179                  0.00    148.21     60.75      0.00
  181                  0.00    148.24     60.77      0.00
  183                  0.00    148.22     59.46      0.00
  184                  0.00    147.02     56.77      0.00
  185                 34.11    147.59     57.02      0.00
  187                  0.00    148.29     58.84      0.00
  189                143.53    148.59     62.65      0.00
  191                108.93    148.56     53.54      0.00
  193                 94.84    148.65     56.61      0.00
  195                  0.00    148.72     57.73      0.00
  197                 22.66    148.57     54.41      0.00
  199                158.70    143.48     63.04      0.00
  201                 59.33    142.79     61.83      0.00
  203               4084.25    142.65     60.94      0.00
  204                  0.00    148.04     55.05      0.00
  205                 86.93    143.40     53.04      0.00
  206                  0.00    141.95     61.07      6.79
  207                 92.29    142.50     57.85     12.65
  208                  0.00    141.33     54.31      0.38
  209                  1.16    140.26     61.64      0.00
  211                 11.53    139.90     57.59      0.00
  213                 18.54    139.81     57.55      0.00
  215                122.61    139.62     57.46      0.00
  217                 32.21    139.60     57.89      0.00
  219                 54.96    139.59     58.75      0.00
  225                 30.32    139.59     57.02      0.00
  229                 85.36    139.30     55.81      0.00
  231                 21.92    139.30     58.19      0.00
  237                 20.76    139.31     54.30      0.00
  239                 59.33    139.19     54.68      0.00
  241                  0.00    139.19     54.68      0.00
  243                  5.77    139.19     54.25      0.00
  247                 93.61    139.17     52.50      0.00
  249                  0.00    139.17     52.50      0.00
  251                 32.13    139.15     47.29      0.00
  253                 72.51    139.07     44.66      0.00
  255                 53.72    139.13     48.58      0.00
  257                  0.00    154.46     59.56      0.00
  259                  0.00    154.03     55.91      0.00
  261                  0.00    152.46     66.06      0.00
  263                  0.00    152.30     65.99      0.00
  265                  0.00    150.24     65.10      0.00
  267                  0.00    148.67     55.32      0.00
  269                  0.00    148.99     64.56      0.00
  271                  0.00    148.33     61.67      0.00
  273                  0.00    143.41     58.67      0.00
  275                  0.00    142.77     57.53      0.00
  River           -13079.12    220.00      0.00      0.00  Reservoir
  Lake                 0.00    167.00      0.00      0.00  Reservoir
  1                  433.45    147.57      6.79      0.00  Tank
  2                  -44.49    139.14      9.81      0.00  Tank
  3                 2212.80    160.45     13.63      0.00  Tank
   
   
  Link Results at 24:00:00 hrs:
  ----------------------------------------------
                       Flow  Velocity  Headloss
  Link                  gpm       fps   /1000ft
  ----------------------------------------------
  20               -2212.80      0.09      0.00
  40                -433.45      0.02      0.00
  50                  44.49      0.00      0.00
  60               13079.12      9.28      8.83
  101                  0.00      0.00      0.00
  103                167.73      0.27      0.02
  105               -420.37      1.19      0.51
  107                 32.65      0.09      0.00
  109                 -9.42      0.02      0.00
  111               -317.18      0.90      0.30
  112                496.71      1.41      0.69
  113                -78.29      0.22      0.02
  114                124.13      0.79      0.38
  115                -40.02      0.26      0.05
  116                 19.23      0.05      0.00
  117                633.06      1.80      1.09
  119               -730.14      2.07      1.42
  120               1153.16      3.27      3.30
  121               1034.04      2.93      2.70
  122                366.60      2.34      2.85
  123               9778.39      4.44      1.71
  125              13079.12      5.94      2.94
  129               2878.75      2.04      0.61
  131               2602.11      1.85      0.51
  133              -2212.80      2.26      0.92
  135                365.82      0.26      0.01
  137                 56.86      0.09      0.00
  145                308.97      1.97      2.07
  147                301.13      1.92      1.98
  149               -632.71      4.04      7.82
  151               -624.46      3.99      7.64
  153                344.67      0.98      0.35
  155                381.42      1.08      0.43
  159               -392.79      1.11      0.45
  161               -428.80      2.74      3.81
  163               -157.24      0.45      0.08
  169                215.99      1.38      1.07
  171                463.71      1.32      0.61
  173               7927.27      3.60      1.16
  175               7858.39      3.57      1.14
  177               7803.44      3.54      1.13
  179               7532.07      3.42      1.06
  180                  3.46      0.01      0.00
  181                  3.46      0.01      0.00
  183               7308.90      3.32      1.00
  185                -19.36      0.12      0.01
  186                338.23      2.16      2.45
  187               6678.70      3.03      0.85
  189               4617.35      2.10      0.43
  191              -2009.03      1.42      0.32
  193              -1714.66      1.22      0.23
  195                439.13      1.25      0.55
  197                361.76      1.03      0.39
  199                -71.69      0.20      0.02
  201               -433.45      1.23      0.54
  202                536.10      3.42      5.76
  203                231.98      1.48      1.22
  204                536.10      1.52      0.80
  205                338.23      0.96      0.34
  207                303.67      0.86      0.28
  209                158.86      1.01      0.61
  211                610.84      1.73      1.02
  213                179.37      0.51      0.11
  215                139.98      0.40      0.07
  217               -241.93      0.69      0.18
  219               -250.35      0.71      0.19
  221                250.35      1.60      1.41
  223                 46.37      0.13      0.01
  225                 69.03      0.20      0.02
  229               4617.35      3.27      1.27
  231               4283.39      3.04      1.10
  233               4084.25      2.90      1.17
  235                175.26      0.50      0.10
  237                518.13      1.47      0.75
  238                671.95      1.91      1.21
  239                246.11      0.70      0.19
  240                671.95      1.91      1.21
  241                671.95      1.91      1.21
  243                670.79      1.07      0.30
  245                352.76      0.56      0.09
  247                240.10      0.38      0.04
  249                117.49      0.19      0.01
  251                 54.96      0.11      0.01
  257                 30.32      0.09      0.00
  261                 94.12      0.60      0.23
  263                 21.92      0.06      0.00
  269                306.50      0.87      0.28
  271                 13.16      0.08      0.01
  273                272.58      0.77      0.23
  275                 83.45      0.24      0.03
  277                  5.77      0.02      0.00
  281                 77.68      0.32      0.05
  283                129.80      0.37      0.06
  285                -72.01      0.20      0.02
  287                 56.09      0.23      0.03
  289                 44.49      0.18      0.02
  291                 72.51      0.30      0.05
  293                -25.65      0.16      0.02
  295                 57.78      0.16      0.01
  297                485.72      3.10      4.80
  299                233.36      1.49      1.23
  301                233.36      1.49      1.23
  303                252.36      1.61      1.43
  305                147.34      0.42      0.07
  307                399.70      1.13      0.46
  309                207.18      1.32      0.99
  311                -67.19      0.19      0.02
  313                466.08      1.32      0.62
  315              -2153.79      1.53      0.36
  317                106.30      0.68      0.29
  319                 68.96      0.20      0.02
  321               7516.08      3.41      1.05
  323                139.81      0.40      0.07
  325                144.76      0.92      0.51
  329              13079.12      5.94      2.98
  330                  0.00      0.00      0.00
  333                 -0.00      0.00      0.00
  10                   0.00      0.00      0.00  Pump
  335              13079.12      0.00    -94.14  Pump
   
  Analysis ended Wed May 06 17:51:55 2020
