  Page 1                                    Wed May 06 17:52:33 2020

  ******************************************************************
  *                           E P A N E T                          *
  *                   Hydraulic and Water Quality                  *
  *                   Analysis for Pipe Networks                   *
  *                         Version 2.00.12                        *
  ******************************************************************
  
  Analysis begun Wed May 06 17:52:33 2020

   
  Hydraulic Status:
  -----------------------------------------------------------------------
     0:00:00: Balanced after 5 trials
     0:00:00: Reservoir River is emptying
     0:00:00: Reservoir Lake is closed
     0:00:00: Tank 1 is filling at 13.10 ft
     0:00:00: Tank 2 is filling at 23.50 ft
     0:00:00: Tank 3 is filling at 29.00 ft
   
     0:05:00: Balanced after 1 trials
   
     0:10:00: Balanced after 1 trials
   
     0:15:00: Balanced after 1 trials
   
     0:20:00: Balanced after 1 trials
   
     0:25:00: Balanced after 1 trials
   
     0:30:00: Balanced after 1 trials
   
     0:35:00: Balanced after 1 trials
   
     0:40:00: Balanced after 1 trials
   
     0:45:00: Balanced after 1 trials
   
     0:50:00: Balanced after 1 trials
   
     0:55:00: Balanced after 1 trials
   
     1:00:00: Pump 10 changed by timer control
     1:00:00: Balanced after 7 trials
     1:00:00: Reservoir Lake is emptying
     1:00:00: Tank 2 is emptying at 23.98 ft
     1:00:00: Pump 10 changed from closed to open
   
     1:05:00: Balanced after 2 trials
   
     1:10:00: Balanced after 2 trials
   
     1:15:00: Balanced after 2 trials
   
     1:20:00: Balanced after 2 trials
   
     1:25:00: Balanced after 2 trials
   
     1:30:00: Balanced after 2 trials
   
     1:35:00: Balanced after 2 trials
   
     1:40:00: Balanced after 2 trials
   
     1:45:00: Balanced after 2 trials
   
     1:50:00: Balanced after 2 trials
   
     1:55:00: Balanced after 2 trials
   
     2:00:00: Balanced after 4 trials
     2:00:00: Tank 2 is filling at 22.80 ft
   
     2:05:00: Balanced after 1 trials
   
     2:10:00: Balanced after 1 trials
   
     2:15:00: Balanced after 1 trials
   
     2:20:00: Balanced after 1 trials
   
     2:25:00: Balanced after 1 trials
   
     2:30:00: Balanced after 1 trials
   
     2:35:00: Balanced after 1 trials
   
     2:40:00: Balanced after 1 trials
   
     2:45:00: Balanced after 1 trials
   
     2:50:00: Balanced after 1 trials
   
     2:55:00: Balanced after 1 trials
   
     3:00:00: Balanced after 3 trials
   
     3:05:00: Balanced after 1 trials
   
     3:10:00: Balanced after 1 trials
   
     3:15:00: Balanced after 1 trials
   
     3:20:00: Balanced after 1 trials
   
     3:25:00: Balanced after 1 trials
   
     3:30:00: Balanced after 1 trials
   
     3:35:00: Balanced after 1 trials
   
     3:40:00: Balanced after 1 trials
   
     3:41:02: Pump 335 changed by Tank 1 control
     3:41:02: Pipe 330 changed by Tank 1 control
     3:41:02: Balanced after 4 trials
     3:41:02: Pipe 330 changed from closed to open
     3:41:02: Pump 335 changed from open to closed
   
     3:45:00: Balanced after 2 trials
   
     3:50:00: Balanced after 2 trials
   
     3:55:00: Balanced after 2 trials
   
     4:00:00: Balanced after 3 trials
   
     4:05:00: Balanced after 2 trials
   
     4:10:00: Balanced after 2 trials
   
     4:15:00: Balanced after 2 trials
   
     4:20:00: Balanced after 2 trials
   
     4:25:00: Balanced after 2 trials
   
     4:30:00: Balanced after 2 trials
   
     4:35:00: Balanced after 2 trials
   
     4:40:00: Balanced after 2 trials
   
     4:45:00: Balanced after 2 trials
   
     4:50:00: Balanced after 2 trials
   
     4:55:00: Balanced after 2 trials
   
     5:00:00: Balanced after 3 trials
     5:00:00: Tank 3 is emptying at 34.09 ft
   
     5:05:00: Balanced after 2 trials
   
     5:10:00: Balanced after 2 trials
   
     5:15:00: Balanced after 2 trials
   
     5:20:00: Balanced after 2 trials
   
     5:25:00: Balanced after 2 trials
   
     5:30:00: Balanced after 2 trials
   
     5:35:00: Balanced after 2 trials
   
     5:40:00: Balanced after 2 trials
   
     5:45:00: Balanced after 2 trials
   
     5:50:00: Balanced after 2 trials
   
     5:55:00: Balanced after 2 trials
   
     6:00:00: Balanced after 3 trials
     6:00:00: Tank 3 is filling at 33.96 ft
   
     6:05:00: Balanced after 1 trials
   
     6:10:00: Balanced after 1 trials
   
     6:15:00: Balanced after 1 trials
   
     6:20:00: Balanced after 1 trials
   
     6:25:00: Balanced after 1 trials
   
     6:30:00: Balanced after 1 trials
   
     6:35:00: Balanced after 1 trials
   
     6:40:00: Balanced after 1 trials
   
     6:45:00: Balanced after 1 trials
   
     6:50:00: Balanced after 1 trials
   
     6:55:00: Balanced after 1 trials
   
     7:00:00: Balanced after 3 trials
   
     7:05:00: Balanced after 1 trials
   
     7:10:00: Balanced after 1 trials
   
     7:15:00: Balanced after 1 trials
   
     7:20:00: Balanced after 1 trials
   
     7:25:00: Balanced after 1 trials
   
     7:30:00: Balanced after 1 trials
   
     7:35:00: Balanced after 1 trials
   
     7:40:00: Balanced after 1 trials
   
     7:45:00: Balanced after 1 trials
   
     7:50:00: Balanced after 1 trials
   
     7:55:00: Balanced after 1 trials
   
     8:00:00: Balanced after 3 trials
   
     8:05:00: Balanced after 1 trials
   
     8:10:00: Balanced after 1 trials
   
     8:15:00: Balanced after 1 trials
   
     8:20:00: Balanced after 1 trials
   
     8:25:00: Balanced after 1 trials
   
     8:30:00: Balanced after 1 trials
   
     8:35:00: Balanced after 1 trials
   
     8:40:00: Balanced after 1 trials
   
     8:45:00: Balanced after 1 trials
   
     8:50:00: Balanced after 1 trials
   
     8:55:00: Balanced after 1 trials
   
     9:00:00: Balanced after 3 trials
     9:00:00: Tank 1 is emptying at 22.30 ft
     9:00:00: Tank 3 is emptying at 34.99 ft
   
     9:05:00: Balanced after 1 trials
   
     9:10:00: Balanced after 1 trials
   
     9:15:00: Balanced after 1 trials
   
     9:20:00: Balanced after 1 trials
   
     9:25:00: Balanced after 1 trials
   
     9:30:00: Balanced after 1 trials
   
     9:35:00: Balanced after 1 trials
   
     9:40:00: Balanced after 1 trials
   
     9:45:00: Balanced after 1 trials
   
     9:50:00: Balanced after 1 trials
   
     9:55:00: Balanced after 1 trials
   
    10:00:00: Balanced after 2 trials
    10:00:00: Tank 2 is emptying at 27.97 ft
   
    10:05:00: Balanced after 1 trials
   
    10:10:00: Balanced after 1 trials
   
    10:15:00: Balanced after 1 trials
   
    10:20:00: Balanced after 1 trials
   
    10:25:00: Balanced after 1 trials
   
    10:30:00: Balanced after 1 trials
   
    10:35:00: Balanced after 1 trials
   
    10:40:00: Balanced after 1 trials
   
    10:45:00: Balanced after 1 trials
   
    10:50:00: Balanced after 1 trials
   
    10:55:00: Balanced after 1 trials
   
    11:00:00: Balanced after 3 trials
   
    11:05:00: Balanced after 1 trials
   
    11:10:00: Balanced after 1 trials
   
    11:15:00: Balanced after 1 trials
   
    11:20:00: Balanced after 1 trials
   
    11:25:00: Balanced after 1 trials
   
    11:30:00: Balanced after 1 trials
   
    11:35:00: Balanced after 1 trials
   
    11:40:00: Balanced after 1 trials
   
    11:45:00: Balanced after 1 trials
   
    11:50:00: Balanced after 1 trials
   
    11:55:00: Balanced after 1 trials
   
    12:00:00: Balanced after 4 trials
    12:00:00: Tank 1 is filling at 21.70 ft
    12:00:00: Tank 2 is filling at 27.41 ft
   
    12:05:00: Balanced after 2 trials
   
    12:10:00: Balanced after 2 trials
   
    12:15:00: Balanced after 2 trials
   
    12:20:00: Balanced after 2 trials
   
    12:25:00: Balanced after 2 trials
   
    12:30:00: Balanced after 2 trials
   
    12:35:00: Balanced after 2 trials
   
    12:40:00: Balanced after 2 trials
   
    12:45:00: Balanced after 2 trials
   
    12:50:00: Balanced after 2 trials
   
    12:55:00: Balanced after 2 trials
   
    13:00:00: Balanced after 3 trials
   
    13:05:00: Balanced after 2 trials
   
    13:10:00: Balanced after 2 trials
   
    13:15:00: Balanced after 2 trials
   
    13:20:00: Balanced after 2 trials
   
    13:25:00: Balanced after 2 trials
   
    13:30:00: Balanced after 2 trials
   
    13:35:00: Balanced after 2 trials
   
    13:40:00: Balanced after 2 trials
   
    13:45:00: Balanced after 2 trials
   
    13:50:00: Balanced after 2 trials
   
    13:55:00: Balanced after 2 trials
   
    14:00:00: Balanced after 3 trials
    14:00:00: Tank 1 is emptying at 22.45 ft
   
    14:05:00: Balanced after 1 trials
   
    14:10:00: Balanced after 1 trials
   
    14:15:00: Balanced after 1 trials
   
    14:20:00: Balanced after 1 trials
   
    14:25:00: Balanced after 1 trials
   
    14:30:00: Balanced after 1 trials
   
    14:35:00: Balanced after 1 trials
   
    14:40:00: Balanced after 1 trials
   
    14:45:00: Balanced after 1 trials
   
    14:50:00: Balanced after 1 trials
   
    14:55:00: Balanced after 1 trials
   
    15:00:00: Pump 10 changed by timer control
    15:00:00: Balanced after 5 trials
    15:00:00: Reservoir Lake is closed
    15:00:00: Pump 10 changed from open to closed
   
    15:05:00: Balanced after 2 trials
   
    15:10:00: Balanced after 2 trials
   
    15:15:00: Balanced after 2 trials
   
    15:20:00: Balanced after 2 trials
   
    15:25:00: Balanced after 2 trials
   
    15:30:00: Balanced after 2 trials
   
    15:35:00: Balanced after 2 trials
   
    15:40:00: Balanced after 2 trials
   
    15:45:00: Balanced after 2 trials
   
    15:50:00: Balanced after 2 trials
   
    15:55:00: Balanced after 2 trials
   
    16:00:00: Balanced after 3 trials
    16:00:00: Tank 2 is emptying at 28.98 ft
   
    16:05:00: Balanced after 2 trials
   
    16:10:00: Balanced after 1 trials
   
    16:15:00: Balanced after 1 trials
   
    16:20:00: Balanced after 1 trials
   
    16:25:00: Balanced after 1 trials
   
    16:30:00: Balanced after 1 trials
   
    16:35:00: Balanced after 1 trials
   
    16:40:00: Balanced after 1 trials
   
    16:45:00: Balanced after 1 trials
   
    16:50:00: Balanced after 1 trials
   
    16:55:00: Balanced after 1 trials
   
    17:00:00: Balanced after 3 trials
   
    17:05:00: Balanced after 1 trials
   
    17:10:00: Balanced after 1 trials
   
    17:15:00: Balanced after 1 trials
   
    17:20:00: Balanced after 1 trials
   
    17:25:00: Balanced after 1 trials
   
    17:30:00: Balanced after 1 trials
   
    17:35:00: Balanced after 1 trials
   
    17:40:00: Balanced after 1 trials
   
    17:45:00: Balanced after 1 trials
   
    17:50:00: Balanced after 1 trials
   
    17:55:00: Balanced after 1 trials
   
    18:00:00: Balanced after 4 trials
    18:00:00: Tank 2 is filling at 28.12 ft
   
    18:05:00: Balanced after 2 trials
   
    18:10:00: Balanced after 2 trials
   
    18:15:00: Balanced after 2 trials
   
    18:20:00: Balanced after 2 trials
   
    18:25:00: Balanced after 2 trials
   
    18:30:00: Balanced after 2 trials
   
    18:35:00: Balanced after 2 trials
   
    18:40:00: Balanced after 2 trials
   
    18:45:00: Balanced after 2 trials
   
    18:50:00: Balanced after 2 trials
   
    18:55:00: Balanced after 2 trials
   
    19:00:00: Balanced after 3 trials
    19:00:00: Tank 2 is emptying at 28.54 ft
   
    19:05:00: Balanced after 1 trials
   
    19:10:00: Balanced after 1 trials
   
    19:15:00: Balanced after 1 trials
   
    19:20:00: Balanced after 1 trials
   
    19:25:00: Balanced after 1 trials
   
    19:30:00: Balanced after 1 trials
   
    19:35:00: Balanced after 1 trials
   
    19:40:00: Balanced after 1 trials
   
    19:45:00: Balanced after 1 trials
   
    19:50:00: Balanced after 1 trials
   
    19:55:00: Balanced after 1 trials
   
    20:00:00: Balanced after 3 trials
   
    20:05:00: Balanced after 1 trials
   
    20:10:00: Balanced after 1 trials
   
    20:15:00: Balanced after 1 trials
   
    20:20:00: Balanced after 1 trials
   
    20:25:00: Balanced after 1 trials
   
    20:30:00: Balanced after 1 trials
   
    20:35:00: Balanced after 1 trials
   
    20:40:00: Balanced after 1 trials
   
    20:45:00: Balanced after 1 trials
   
    20:50:00: Balanced after 1 trials
   
    20:55:00: Balanced after 1 trials
   
    21:00:00: Balanced after 3 trials
   
    21:05:00: Balanced after 1 trials
   
    21:10:00: Balanced after 1 trials
   
    21:15:00: Balanced after 1 trials
   
    21:20:00: Balanced after 1 trials
   
    21:25:00: Balanced after 1 trials
   
    21:30:00: Balanced after 1 trials
   
    21:35:00: Balanced after 1 trials
   
    21:40:00: Balanced after 1 trials
   
    21:45:00: Balanced after 1 trials
   
    21:50:00: Balanced after 1 trials
   
    21:55:00: Balanced after 1 trials
   
    22:00:00: Balanced after 4 trials
   
    22:05:00: Balanced after 2 trials
   
    22:07:33: Pump 335 changed by Tank 1 control
    22:07:33: Pipe 330 changed by Tank 1 control
    22:07:33: Balanced after 5 trials
    22:07:33: Tank 3 is filling at 29.59 ft
    22:07:33: Pipe 330 changed from open to closed
    22:07:33: Pump 335 changed from closed to open
   
    22:10:00: Balanced after 2 trials
   
    22:15:00: Balanced after 2 trials
   
    22:20:00: Balanced after 2 trials
   
    22:25:00: Balanced after 2 trials
   
    22:30:00: Balanced after 2 trials
   
    22:35:00: Balanced after 2 trials
   
    22:40:00: Balanced after 2 trials
   
    22:45:00: Balanced after 2 trials
   
    22:50:00: Balanced after 2 trials
   
    22:55:00: Balanced after 2 trials
   
    23:00:00: Balanced after 3 trials
   
    23:05:00: Balanced after 2 trials
   
    23:10:00: Balanced after 2 trials
   
    23:15:00: Balanced after 2 trials
   
    23:20:00: Balanced after 2 trials
   
    23:25:00: Balanced after 2 trials
   
    23:30:00: Balanced after 2 trials
   
    23:35:00: Balanced after 2 trials
   
    23:40:00: Balanced after 2 trials
   
    23:45:00: Balanced after 2 trials
   
    23:50:00: Balanced after 2 trials
   
    23:55:00: Balanced after 2 trials
   
    24:00:00: Balanced after 5 trials
    24:00:00: Tank 1 is filling at 14.94 ft
    24:00:00: Tank 2 is filling at 22.14 ft
   
   
  Node Results at 0:00:00 hrs:
  --------------------------------------------------------
                     Demand      Head  Pressure  Chemical
  Node                  gpm        ft       psi      mg/L
  --------------------------------------------------------
  10                   0.00    149.16      0.93      0.00
  15                 473.97    139.72     46.68      0.00
  20                   0.00    158.00     12.57      0.00
  35                1578.07    148.61     58.98      0.00
  40                   0.00    145.00      5.68      0.00
  50                   0.00    140.00     10.18      0.00
  60                   0.00    209.09     90.60      0.00
  601                  0.00    303.00    131.29      0.00
  61                   0.00    303.00    131.29      0.00
  101                210.84    149.16     46.43      0.00
  103                147.85    149.12     45.98      0.00
  105                150.26    150.27     52.76      0.00
  107                 60.65    150.25     55.57      0.00
  109                256.85    149.12     55.82      0.00
  111                157.55    149.45     60.42      0.00
  113                 22.21    149.45     63.89      0.00
  115                 57.83    150.26     59.04      0.00
  117                130.66    153.05     60.42      0.00
  119                195.50    159.55     68.27      0.00
  120                  0.00    157.46     68.23      0.00
  121                 46.21    162.62     71.33      0.00
  123                  0.00    167.04     67.61      0.00
  125                 50.62    161.79     65.34      0.00
  127                 19.60    159.26     44.74      0.00
  129                  0.00    159.25     46.90      0.00
  131                 47.45    159.23     66.40      0.00
  139                  6.54    156.10     54.21      0.00
  141                 10.93    153.88     64.94      0.00
  143                  6.88    147.29     65.77      0.00
  145                 30.67    154.69     66.59      0.00
  147                  9.49    155.30     59.28      0.00
  149                 30.05    155.56     60.47      0.00
  151                160.37    158.15     54.01      0.00
  153                 49.03    158.22     39.87      0.00
  157                 57.49    157.33     62.50      0.00
  159                 45.87    154.27     64.25      0.00
  161                 17.54    152.20     64.21      0.00
  163                 10.46    151.78     63.60      0.00
  164                  0.00    151.78     63.60      0.00
  166                  2.89    151.78     66.63      0.00
  167                 16.16    150.06     67.19      0.00
  169                  0.00    150.06     67.19      0.00
  171                 43.67    149.06     66.32      0.00
  173                  0.00    149.04     66.31      0.00
  177                 64.57    148.56     60.90      0.00
  179                  0.00    148.50     60.88      0.00
  181                  0.00    148.62     60.93      0.00
  183                  0.00    148.54     59.60      0.00
  184                  0.00    147.79     57.10      0.00
  185                 28.47    148.24     57.30      0.00
  187                  0.00    148.94     59.12      0.00
  189                119.79    149.16     62.90      0.00
  191                 90.91    149.30     53.86      0.00
  193                 79.15    149.38     56.93      0.00
  195                  0.00    149.44     58.04      0.00
  197                 18.91    149.34     54.74      0.00
  199                132.45    145.06     63.72      0.00
  201                 49.52    144.52     62.58      0.00
  203               3495.06    144.41     61.71      0.00
  204                  0.00    148.70     55.33      0.00
  205                 72.55    144.95     53.71      0.00
  206                  0.00    143.54     61.76      0.00
  207                 77.02    144.13     58.55      0.00
  208                  0.00    142.88     54.98      0.00
  209                  0.97    141.72     62.28      0.00
  211                  9.62    141.34     58.21      0.00
  213                 15.47    141.26     58.17      0.00
  215                102.33    141.12     58.11      0.00
  217                 26.88    141.11     58.54      0.00
  219                 45.87    141.10     59.40      0.00
  225                 25.31    141.10     57.67      0.00
  229                 71.24    140.55     56.35      0.00
  231                 18.29    140.55     58.73      0.00
  237                 17.33    140.54     54.83      0.00
  239                 49.52    140.34     55.18      0.00
  241                  0.00    140.34     55.18      0.00
  243                  4.82    140.34     54.74      0.00
  247                 78.12    140.29     52.99      0.00
  249                  0.00    140.29     52.99      0.00
  251                 26.82    140.24     47.77      0.00
  253                 60.52    140.04     45.08      0.00
  255                 44.83    140.08     49.00      0.00
  257                  0.00    154.75     59.69      0.00
  259                  0.00    154.38     56.06      0.00
  261                  0.00    153.01     66.30      0.00
  263                  0.00    152.87     66.24      0.00
  265                  0.00    150.61     65.26      0.00
  267                  0.00    149.37     55.62      0.00
  269                  0.00    149.48     64.77      0.00
  271                  0.00    148.74     61.85      0.00
  273                  0.00    144.97     59.35      0.00
  275                  0.00    144.48     58.27      0.00
  River           -13104.80    220.00      0.00      0.00  Reservoir
  Lake                 0.00    167.00      0.00      0.00  Reservoir
  1                 1083.91    145.00      5.68      0.00  Tank
  2                  100.92    140.00     10.18      0.00  Tank
  3                 2989.47    158.00     12.57      0.00  Tank
   
   
  Link Results at 0:00:00 hrs:
  ----------------------------------------------
                       Flow  Velocity  Headloss
  Link                  gpm       fps   /1000ft
  ----------------------------------------------
  20               -2989.47      0.12      0.00
  40               -1083.91      0.05      0.00
  50                -100.92      0.00      0.00
  60               13104.80      9.29      8.86
  101                  0.00      0.00      0.00
  103                176.41      0.28      0.03
  105               -387.25      1.10      0.44
  107                 52.36      0.15      0.01
  109                 28.56      0.05      0.00
  111               -228.30      0.65      0.16
  112                498.09      1.41      0.70
  113                  4.93      0.01      0.00
  114                127.79      0.82      0.40
  115                 -8.29      0.05      0.00
  116                110.51      0.31      0.04
  117                589.88      1.67      0.95
  119               -692.00      1.96      1.28
  120               1069.58      3.03      2.87
  121                961.04      2.73      2.35
  122                342.95      2.19      2.52
  123               9201.83      4.18      1.53
  125              13104.80      5.95      2.95
  129               3513.81      2.49      0.89
  131               3280.72      2.33      0.78
  133              -2989.47      3.05      1.60
  135                271.65      0.19      0.01
  137                 47.45      0.08      0.00
  145                224.20      1.43      1.15
  147                217.66      1.39      1.08
  149               -480.85      3.07      4.71
  151               -473.97      3.03      4.58
  153                274.13      0.78      0.23
  155                304.80      0.86      0.28
  159               -314.29      0.89      0.30
  161               -344.34      2.20      2.54
  163               -133.44      0.38      0.06
  169                182.47      1.16      0.78
  171                371.27      1.05      0.40
  173               7565.48      3.43      1.07
  175               7507.99      3.41      1.05
  177               7462.12      3.39      1.04
  179               7214.78      3.27      0.98
  180                  2.89      0.01      0.00
  181                  2.89      0.01      0.00
  183               7018.52      3.19      0.93
  185                -16.16      0.10      0.01
  186                341.16      2.18      2.49
  187               6431.68      2.92      0.79
  189               4055.63      1.84      0.34
  191              -2332.38      1.65      0.42
  193              -1578.07      1.12      0.20
  195                908.51      2.58      2.12
  197                843.94      2.39      1.85
  199               -239.97      0.68      0.18
  201              -1083.91      3.07      2.94
  202                469.82      3.00      4.51
  203                157.13      1.00      0.59
  204                469.82      1.33      0.63
  205                341.16      0.97      0.35
  207                397.10      1.13      0.46
  209                131.67      0.84      0.43
  211                570.68      1.62      0.90
  213                209.49      0.59      0.14
  215                232.08      0.66      0.17
  217               -212.00      0.60      0.14
  219               -229.81      0.65      0.17
  221                229.81      1.47      1.20
  223                 88.40      0.25      0.03
  225                107.31      0.30      0.04
  229               4055.63      2.88      1.00
  231               3735.53      2.65      0.86
  233               3495.06      2.48      0.88
  235                187.66      0.53      0.11
  237                492.85      1.40      0.68
  238                698.86      1.98      1.31
  239                283.02      0.80      0.24
  240                698.86      1.98      1.31
  241                698.86      1.98      1.31
  243                697.89      1.11      0.32
  245                328.35      0.52      0.08
  247                200.39      0.32      0.03
  249                 98.06      0.16      0.01
  251                 45.87      0.10      0.00
  257                 25.31      0.07      0.00
  261                112.49      0.72      0.32
  263                 18.29      0.05      0.00
  269                359.92      1.02      0.38
  271                -22.95      0.15      0.02
  273                365.54      1.04      0.39
  275                121.35      0.34      0.05
  277                  4.82      0.01      0.00
  281                116.53      0.48      0.12
  283                194.68      0.55      0.12
  285                -95.37      0.27      0.03
  287                133.78      0.55      0.15
  289               -100.92      0.41      0.09
  291                 60.52      0.25      0.03
  293                -72.49      0.46      0.14
  295                 99.31      0.28      0.04
  297                451.50      2.88      4.19
  299                216.95      1.38      1.08
  301                216.95      1.38      1.08
  303                234.55      1.50      1.25
  305                138.38      0.39      0.07
  307                372.93      1.06      0.41
  309                182.92      1.17      0.79
  311                 49.16      0.14      0.01
  313                416.48      1.18      0.50
  315              -2486.58      1.76      0.47
  317                 92.08      0.59      0.22
  319                 95.58      0.27      0.03
  321               7201.44      3.27      0.97
  323                190.95      0.54      0.12
  325                154.20      0.98      0.57
  329              13104.80      5.95      2.99
  330                  0.00      0.00      0.00
  333                 -0.00      0.00      0.00
  10                   0.00      0.00      0.00  Pump
  335              13104.80      0.00    -93.91  Pump
   
   
  Node Results at 0:05:00 hrs:
  --------------------------------------------------------
                     Demand      Head  Pressure  Chemical
  Node                  gpm        ft       psi      mg/L
  --------------------------------------------------------
  10                   0.00    149.25      0.98      0.00
  15                 473.97    139.82     46.72      0.00
  20                   0.00    158.09     12.61      0.00
  35                1578.07    148.71     59.02      0.00
  40                   0.00    145.13      5.73      0.00
  50                   0.00    140.03     10.20      0.00
  60                   0.00    209.10     90.60      0.00
  601                  0.00    303.03    131.30      0.00
  61                   0.00    303.03    131.30      0.00
  101                210.84    149.25     46.47      0.00
  103                147.85    149.22     46.02      0.00
  105                150.26    150.36     52.80      0.00
  107                 60.65    150.35     55.61      0.00
  109                256.85    149.22     55.86      0.00
  111                157.55    149.54     60.46      0.00
  113                 22.21    149.54     63.93      0.00
  115                 57.83    150.35     59.08      0.00
  117                130.66    153.15     60.47      0.00
  119                195.50    159.64     68.31      0.00
  120                  0.00    157.55     68.27      0.00
  121                 46.21    162.71     71.37      0.00
  123                  0.00    167.13     67.65      0.00
  125                 50.62    161.88     65.38      0.00
  127                 19.60    159.35     44.78      0.00
  129                  0.00    159.34     46.94      0.00
  131                 47.45    159.33     66.44      0.00
  139                  6.54    156.19     54.25      0.00
  141                 10.93    153.97     64.98      0.00
  143                  6.88    147.38     65.81      0.00
  145                 30.67    154.78     66.63      0.00
  147                  9.49    155.40     59.32      0.00
  149                 30.05    155.66     60.51      0.00
  151                160.37    158.24     54.05      0.00
  153                 49.03    158.31     39.91      0.00
  157                 57.49    157.43     62.54      0.00
  159                 45.87    154.37     64.29      0.00
  161                 17.54    152.29     64.25      0.00
  163                 10.46    151.87     63.64      0.00
  164                  0.00    151.87     63.64      0.00
  166                  2.89    151.87     66.67      0.00
  167                 16.16    150.16     67.23      0.00
  169                  0.00    150.16     67.23      0.00
  171                 43.67    149.15     66.36      0.00
  173                  0.00    149.14     66.35      0.00
  177                 64.57    148.65     60.95      0.00
  179                  0.00    148.60     60.92      0.00
  181                  0.00    148.72     60.97      0.00
  183                  0.00    148.64     59.64      0.00
  184                  0.00    147.88     57.14      0.00
  185                 28.47    148.33     57.34      0.00
  187                  0.00    149.04     59.16      0.00
  189                119.79    149.25     62.94      0.00
  191                 90.91    149.40     53.90      0.00
  193                 79.15    149.47     56.97      0.00
  195                  0.00    149.53     58.08      0.00
  197                 18.91    149.43     54.78      0.00
  199                132.45    145.15     63.76      0.00
  201                 49.52    144.61     62.62      0.00
  203               3495.06    144.50     61.75      0.00
  204                  0.00    148.79     55.37      0.00
  205                 72.55    145.04     53.75      0.00
  206                  0.00    143.62     61.80      0.00
  207                 77.02    144.22     58.59      0.00
  208                  0.00    142.95     55.01      0.00
  209                  0.97    141.79     62.30      0.00
  211                  9.62    141.40     58.23      0.00
  213                 15.47    141.32     58.20      0.00
  215                102.33    141.18     58.14      0.00
  217                 26.88    141.17     58.57      0.00
  219                 45.87    141.16     59.43      0.00
  225                 25.31    141.16     57.70      0.00
  229                 71.24    140.61     56.37      0.00
  231                 18.29    140.60     58.76      0.00
  237                 17.33    140.59     54.85      0.00
  239                 49.52    140.39     55.20      0.00
  241                  0.00    140.39     55.20      0.00
  243                  4.82    140.39     54.76      0.00
  247                 78.12    140.33     53.01      0.00
  249                  0.00    140.33     53.01      0.00
  251                 26.82    140.28     47.78      0.00
  253                 60.52    140.08     45.10      0.00
  255                 44.83    140.12     49.02      0.00
  257                  0.00    154.85     59.73      0.00
  259                  0.00    154.47     56.10      0.00
  261                  0.00    153.10     66.34      0.00
  263                  0.00    152.96     66.28      0.00
  265                  0.00    150.70     65.30      0.00
  267                  0.00    149.46     55.66      0.00
  269                  0.00    149.58     64.81      0.00
  271                  0.00    148.84     61.89      0.00
  273                  0.00    145.06     59.39      0.00
  275                  0.00    144.57     58.31      0.00
  River           -13101.79    220.00      0.00      0.00  Reservoir
  Lake                 0.00    167.00      0.00      0.00  Reservoir
  1                 1078.93    145.13      5.73      0.00  Tank
  2                  104.25    140.03     10.20      0.00  Tank
  3                 2988.10    158.09     12.61      0.00  Tank
   
   
  Link Results at 0:05:00 hrs:
  ----------------------------------------------
                       Flow  Velocity  Headloss
  Link                  gpm       fps   /1000ft
  ----------------------------------------------
  20               -2988.10      0.12      0.00
  40               -1078.93      0.04      0.00
  50                -104.25      0.00      0.00
  60               13101.79      9.29      8.86
  101                  0.00      0.00      0.00
  103                176.35      0.28      0.03
  105               -387.20      1.10      0.44
  107                 52.32      0.15      0.01
  109                 28.50      0.05      0.00
  111               -228.35      0.65      0.16
  112                497.95      1.41      0.70
  113                  4.81      0.01      0.00
  114                127.75      0.82      0.40
  115                 -8.33      0.05      0.00
  116                110.35      0.31      0.04
  117                589.78      1.67      0.95
  119               -691.87      1.96      1.28
  120               1069.41      3.03      2.87
  121                960.88      2.73      2.35
  122                342.89      2.19      2.52
  123               9200.24      4.18      1.53
  125              13101.79      5.95      2.95
  129               3512.44      2.49      0.89
  131               3279.37      2.33      0.78
  133              -2988.10      3.05      1.60
  135                271.67      0.19      0.01
  137                 47.45      0.08      0.00
  145                224.22      1.43      1.15
  147                217.68      1.39      1.08
  149               -480.85      3.07      4.71
  151               -473.97      3.03      4.58
  153                274.11      0.78      0.23
  155                304.78      0.86      0.28
  159               -314.27      0.89      0.30
  161               -344.31      2.20      2.54
  163               -133.43      0.38      0.06
  169                182.45      1.16      0.78
  171                371.26      1.05      0.40
  173               7564.07      3.43      1.07
  175               7506.58      3.41      1.05
  177               7460.72      3.39      1.04
  179               7213.42      3.27      0.98
  180                  2.89      0.01      0.00
  181                  2.89      0.01      0.00
  183               7017.20      3.19      0.93
  185                -16.16      0.10      0.01
  186                341.16      2.18      2.49
  187               6430.64      2.92      0.79
  189               4058.46      1.84      0.34
  191              -2328.51      1.65      0.41
  193              -1578.07      1.12      0.20
  195                904.56      2.57      2.10
  197                839.99      2.38      1.84
  199               -238.94      0.68      0.18
  201              -1078.93      3.06      2.92
  202                470.32      3.00      4.52
  203                157.64      1.01      0.60
  204                470.32      1.33      0.63
  205                341.16      0.97      0.35
  207                396.57      1.12      0.46
  209                131.75      0.84      0.43
  211                570.40      1.62      0.90
  213                209.41      0.59      0.14
  215                231.83      0.66      0.17
  217               -211.99      0.60      0.14
  219               -229.76      0.65      0.17
  221                229.76      1.47      1.20
  223                 88.32      0.25      0.03
  225                107.24      0.30      0.04
  229               4058.46      2.88      1.00
  231               3737.40      2.65      0.86
  233               3495.06      2.48      0.88
  235                188.61      0.54      0.12
  237                494.27      1.40      0.69
  238                702.19      1.99      1.32
  239                284.94      0.81      0.25
  240                702.19      1.99      1.32
  241                702.19      1.99      1.32
  243                701.22      1.12      0.32
  245                329.14      0.53      0.08
  247                200.39      0.32      0.03
  249                 98.06      0.16      0.01
  251                 45.87      0.10      0.00
  257                 25.31      0.07      0.00
  261                113.28      0.72      0.32
  263                 18.29      0.05      0.00
  269                362.46      1.03      0.39
  271                -23.75      0.15      0.02
  273                368.88      1.05      0.40
  275                122.60      0.35      0.05
  277                  4.82      0.01      0.00
  281                117.78      0.48      0.12
  283                196.77      0.56      0.12
  285                -96.23      0.27      0.03
  287                135.89      0.56      0.15
  289               -104.25      0.43      0.09
  291                 60.52      0.25      0.03
  293                -73.72      0.47      0.15
  295                100.53      0.29      0.04
  297                451.42      2.88      4.19
  299                216.91      1.38      1.08
  301                216.91      1.38      1.08
  303                234.51      1.50      1.25
  305                138.35      0.39      0.07
  307                372.86      1.06      0.41
  309                182.87      1.17      0.79
  311                 48.96      0.14      0.01
  313                416.28      1.18      0.50
  315              -2482.63      1.76      0.47
  317                 92.11      0.59      0.22
  319                 96.50      0.27      0.03
  321               7200.07      3.27      0.97
  323                192.82      0.55      0.12
  325                154.12      0.98      0.57
  329              13101.79      5.95      2.99
  330                  0.00      0.00      0.00
  333                 -0.00      0.00      0.00
  10                   0.00      0.00      0.00  Pump
  335              13101.79      0.00    -93.94  Pump
   
   
  Node Results at 0:10:00 hrs:
  --------------------------------------------------------
                     Demand      Head  Pressure  Chemical
  Node                  gpm        ft       psi      mg/L
  --------------------------------------------------------
  10                   0.00    149.35      1.02      0.00
  15                 473.97    139.91     46.76      0.00
  20                   0.00    158.19     12.65      0.00
  35                1578.07    148.81     59.06      0.00
  40                   0.00    145.25      5.79      0.00
  50                   0.00    140.07     10.21      0.00
  60                   0.00    209.10     90.60      0.00
  601                  0.00    303.07    131.32      0.00
  61                   0.00    303.07    131.32      0.00
  101                210.84    149.35     46.51      0.00
  103                147.85    149.31     46.07      0.00
  105                150.26    150.46     52.84      0.00
  107                 60.65    150.44     55.65      0.00
  109                256.85    149.31     55.90      0.00
  111                157.55    149.64     60.51      0.00
  113                 22.21    149.64     63.97      0.00
  115                 57.83    150.45     59.12      0.00
  117                130.66    153.24     60.51      0.00
  119                195.50    159.73     68.35      0.00
  120                  0.00    157.64     68.31      0.00
  121                 46.21    162.80     71.41      0.00
  123                  0.00    167.22     67.69      0.00
  125                 50.62    161.97     65.42      0.00
  127                 19.60    159.44     44.82      0.00
  129                  0.00    159.44     46.99      0.00
  131                 47.45    159.42     66.48      0.00
  139                  6.54    156.28     54.29      0.00
  141                 10.93    154.06     65.02      0.00
  143                  6.88    147.47     65.85      0.00
  145                 30.67    154.87     66.67      0.00
  147                  9.49    155.49     59.36      0.00
  149                 30.05    155.75     60.55      0.00
  151                160.37    158.34     54.09      0.00
  153                 49.03    158.41     39.95      0.00
  157                 57.49    157.52     62.58      0.00
  159                 45.87    154.46     64.33      0.00
  161                 17.54    152.38     64.30      0.00
  163                 10.46    151.97     63.68      0.00
  164                  0.00    151.97     63.68      0.00
  166                  2.89    151.97     66.71      0.00
  167                 16.16    150.25     67.27      0.00
  169                  0.00    150.25     67.27      0.00
  171                 43.67    149.25     66.40      0.00
  173                  0.00    149.23     66.40      0.00
  177                 64.57    148.75     60.99      0.00
  179                  0.00    148.70     60.96      0.00
  181                  0.00    148.81     61.01      0.00
  183                  0.00    148.73     59.68      0.00
  184                  0.00    147.98     57.19      0.00
  185                 28.47    148.43     57.38      0.00
  187                  0.00    149.14     59.20      0.00
  189                119.79    149.35     62.98      0.00
  191                 90.91    149.49     53.94      0.00
  193                 79.15    149.57     57.01      0.00
  195                  0.00    149.63     58.12      0.00
  197                 18.91    149.53     54.82      0.00
  199                132.45    145.24     63.80      0.00
  201                 49.52    144.70     62.65      0.00
  203               3495.06    144.59     61.79      0.00
  204                  0.00    148.89     55.41      0.00
  205                 72.55    145.13     53.79      0.00
  206                  0.00    143.70     61.83      0.00
  207                 77.02    144.30     58.63      0.00
  208                  0.00    143.03     55.04      0.00
  209                  0.97    141.85     62.33      0.00
  211                  9.62    141.46     58.26      0.00
  213                 15.47    141.38     58.23      0.00
  215                102.33    141.24     58.17      0.00
  217                 26.88    141.23     58.59      0.00
  219                 45.87    141.22     59.46      0.00
  225                 25.31    141.22     57.73      0.00
  229                 71.24    140.66     56.40      0.00
  231                 18.29    140.65     58.78      0.00
  237                 17.33    140.64     54.87      0.00
  239                 49.52    140.43     55.22      0.00
  241                  0.00    140.43     55.22      0.00
  243                  4.82    140.43     54.78      0.00
  247                 78.12    140.38     53.03      0.00
  249                  0.00    140.38     53.03      0.00
  251                 26.82    140.33     47.80      0.00
  253                 60.52    140.12     45.12      0.00
  255                 44.83    140.16     49.03      0.00
  257                  0.00    154.94     59.77      0.00
  259                  0.00    154.56     56.14      0.00
  261                  0.00    153.20     66.38      0.00
  263                  0.00    153.06     66.32      0.00
  265                  0.00    150.80     65.34      0.00
  267                  0.00    149.56     55.70      0.00
  269                  0.00    149.67     64.85      0.00
  271                  0.00    148.94     61.93      0.00
  273                  0.00    145.15     59.43      0.00
  275                  0.00    144.66     58.35      0.00
  River           -13098.77    220.00      0.00      0.00  Reservoir
  Lake                 0.00    167.00      0.00      0.00  Reservoir
  1                 1074.03    145.25      5.79      0.00  Tank
  2                  107.49    140.07     10.21      0.00  Tank
  3                 2986.75    158.19     12.65      0.00  Tank
   
   
  Link Results at 0:10:00 hrs:
  ----------------------------------------------
                       Flow  Velocity  Headloss
  Link                  gpm       fps   /1000ft
  ----------------------------------------------
  20               -2986.75      0.12      0.00
  40               -1074.03      0.04      0.00
  50                -107.49      0.00      0.00
  60               13098.77      9.29      8.85
  101                  0.00      0.00      0.00
  103                176.29      0.28      0.03
  105               -387.14      1.10      0.44
  107                 52.27      0.15      0.01
  109                 28.44      0.05      0.00
  111               -228.41      0.65      0.16
  112                497.81      1.41      0.70
  113                  4.68      0.01      0.00
  114                127.72      0.82      0.40
  115                 -8.38      0.05      0.00
  116                110.19      0.31      0.04
  117                589.67      1.67      0.95
  119               -691.73      1.96      1.28
  120               1069.23      3.03      2.87
  121                960.71      2.73      2.35
  122                342.84      2.19      2.52
  123               9198.63      4.18      1.53
  125              13098.77      5.95      2.95
  129               3511.10      2.49      0.89
  131               3278.04      2.32      0.78
  133              -2986.75      3.05      1.60
  135                271.69      0.19      0.01
  137                 47.45      0.08      0.00
  145                224.24      1.43      1.15
  147                217.70      1.39      1.08
  149               -480.85      3.07      4.71
  151               -473.97      3.03      4.58
  153                274.09      0.78      0.23
  155                304.76      0.86      0.28
  159               -314.25      0.89      0.30
  161               -344.29      2.20      2.54
  163               -133.41      0.38      0.06
  169                182.44      1.16      0.78
  171                371.25      1.05      0.40
  173               7562.64      3.43      1.07
  175               7505.15      3.41      1.05
  177               7459.29      3.39      1.04
  179               7212.04      3.27      0.98
  180                  2.89      0.01      0.00
  181                  2.89      0.01      0.00
  183               7015.87      3.18      0.93
  185                -16.16      0.10      0.01
  186                341.16      2.18      2.49
  187               6429.58      2.92      0.79
  189               4061.21      1.84      0.34
  191              -2324.71      1.65      0.41
  193              -1578.07      1.12      0.20
  195                900.67      2.56      2.09
  197                836.10      2.37      1.82
  199               -237.93      0.67      0.18
  201              -1074.03      3.05      2.89
  202                470.82      3.01      4.53
  203                158.13      1.01      0.60
  204                470.82      1.34      0.63
  205                341.16      0.97      0.35
  207                396.05      1.12      0.46
  209                131.83      0.84      0.43
  211                570.13      1.62      0.90
  213                209.33      0.59      0.14
  215                231.58      0.66      0.17
  217               -211.99      0.60      0.14
  219               -229.71      0.65      0.17
  221                229.71      1.47      1.20
  223                 88.25      0.25      0.03
  225                107.16      0.30      0.04
  229               4061.21      2.88      1.00
  231               3739.22      2.65      0.86
  233               3495.06      2.48      0.88
  235                189.54      0.54      0.12
  237                495.66      1.41      0.69
  238                705.43      2.00      1.33
  239                286.79      0.81      0.25
  240                705.43      2.00      1.33
  241                705.43      2.00      1.33
  243                704.46      1.12      0.33
  245                329.91      0.53      0.08
  247                200.39      0.32      0.03
  249                 98.06      0.16      0.01
  251                 45.87      0.10      0.00
  257                 25.31      0.07      0.00
  261                114.05      0.73      0.33
  263                 18.29      0.05      0.00
  269                364.93      1.04      0.39
  271                -24.52      0.16      0.02
  273                372.12      1.06      0.41
  275                123.81      0.35      0.05
  277                  4.82      0.01      0.00
  281                118.99      0.49      0.12
  283                198.79      0.56      0.13
  285                -97.07      0.28      0.03
  287                137.94      0.56      0.16
  289               -107.49      0.44      0.10
  291                 60.52      0.25      0.03
  293                -74.90      0.48      0.15
  295                101.72      0.29      0.04
  297                451.35      2.88      4.19
  299                216.88      1.38      1.08
  301                216.88      1.38      1.08
  303                234.47      1.50      1.24
  305                138.32      0.39      0.06
  307                372.79      1.06      0.41
  309                182.83      1.17      0.79
  311                 48.76      0.14      0.01
  313                416.09      1.18      0.50
  315              -2478.74      1.76      0.47
  317                 92.15      0.59      0.22
  319                 97.39      0.28      0.03
  321               7198.69      3.27      0.97
  323                194.65      0.55      0.12
  325                154.03      0.98      0.57
  329              13098.77      5.95      2.99
  330                  0.00      0.00      0.00
  333                 -0.00      0.00      0.00
  10                   0.00      0.00      0.00  Pump
  335              13098.77      0.00    -93.96  Pump
   
   
  Node Results at 0:15:00 hrs:
  --------------------------------------------------------
                     Demand      Head  Pressure  Chemical
  Node                  gpm        ft       psi      mg/L
  --------------------------------------------------------
  10                   0.00    149.44      1.06      0.00
  15                 473.97    140.00     46.80      0.00
  20                   0.00    158.28     12.69      0.00
  35                1578.07    148.91     59.10      0.00
  40                   0.00    145.38      5.84      0.00
  50                   0.00    140.11     10.23      0.00
  60                   0.00    209.11     90.61      0.00
  601                  0.00    303.10    131.33      0.00
  61                   0.00    303.10    131.33      0.00
  101                210.84    149.44     46.56      0.00
  103                147.85    149.41     46.11      0.00
  105                150.26    150.55     52.89      0.00
  107                 60.65    150.54     55.70      0.00
  109                256.85    149.41     55.94      0.00
  111                157.55    149.74     60.55      0.00
  113                 22.21    149.74     64.01      0.00
  115                 57.83    150.54     59.16      0.00
  117                130.66    153.33     60.55      0.00
  119                195.50    159.83     68.39      0.00
  120                  0.00    157.73     68.35      0.00
  121                 46.21    162.89     71.45      0.00
  123                  0.00    167.31     67.73      0.00
  125                 50.62    162.06     65.46      0.00
  127                 19.60    159.54     44.86      0.00
  129                  0.00    159.53     47.03      0.00
  131                 47.45    159.52     66.52      0.00
  139                  6.54    156.38     54.33      0.00
  141                 10.93    154.15     65.06      0.00
  143                  6.88    147.56     65.89      0.00
  145                 30.67    154.96     66.71      0.00
  147                  9.49    155.58     59.40      0.00
  149                 30.05    155.84     60.59      0.00
  151                160.37    158.43     54.13      0.00
  153                 49.03    158.50     39.99      0.00
  157                 57.49    157.61     62.62      0.00
  159                 45.87    154.56     64.37      0.00
  161                 17.54    152.48     64.34      0.00
  163                 10.46    152.06     63.72      0.00
  164                  0.00    152.06     63.72      0.00
  166                  2.89    152.06     66.75      0.00
  167                 16.16    150.35     67.31      0.00
  169                  0.00    150.35     67.31      0.00
  171                 43.67    149.35     66.44      0.00
  173                  0.00    149.33     66.44      0.00
  177                 64.57    148.85     61.03      0.00
  179                  0.00    148.80     61.01      0.00
  181                  0.00    148.91     61.06      0.00
  183                  0.00    148.83     59.72      0.00
  184                  0.00    148.07     57.23      0.00
  185                 28.47    148.52     57.42      0.00
  187                  0.00    149.23     59.25      0.00
  189                119.79    149.45     63.02      0.00
  191                 90.91    149.59     53.98      0.00
  193                 79.15    149.66     57.05      0.00
  195                  0.00    149.72     58.16      0.00
  197                 18.91    149.62     54.87      0.00
  199                132.45    145.33     63.84      0.00
  201                 49.52    144.79     62.69      0.00
  203               3495.06    144.68     61.82      0.00
  204                  0.00    148.98     55.45      0.00
  205                 72.55    145.22     53.82      0.00
  206                  0.00    143.78     61.87      0.00
  207                 77.02    144.39     58.66      0.00
  208                  0.00    143.10     55.07      0.00
  209                  0.97    141.92     62.36      0.00
  211                  9.62    141.52     58.29      0.00
  213                 15.47    141.44     58.25      0.00
  215                102.33    141.30     58.19      0.00
  217                 26.88    141.29     58.62      0.00
  219                 45.87    141.28     59.48      0.00
  225                 25.31    141.28     57.75      0.00
  229                 71.24    140.71     56.42      0.00
  231                 18.29    140.71     58.80      0.00
  237                 17.33    140.69     54.90      0.00
  239                 49.52    140.48     55.24      0.00
  241                  0.00    140.48     55.24      0.00
  243                  4.82    140.48     54.80      0.00
  247                 78.12    140.43     53.05      0.00
  249                  0.00    140.43     53.05      0.00
  251                 26.82    140.37     47.82      0.00
  253                 60.52    140.17     45.13      0.00
  255                 44.83    140.20     49.05      0.00
  257                  0.00    155.03     59.81      0.00
  259                  0.00    154.66     56.18      0.00
  261                  0.00    153.29     66.42      0.00
  263                  0.00    153.15     66.36      0.00
  265                  0.00    150.89     65.38      0.00
  267                  0.00    149.65     55.75      0.00
  269                  0.00    149.77     64.89      0.00
  271                  0.00    149.03     61.98      0.00
  273                  0.00    145.24     59.47      0.00
  275                  0.00    144.75     58.39      0.00
  River           -13095.76    220.00      0.00      0.00  Reservoir
  Lake                 0.00    167.00      0.00      0.00  Reservoir
  1                 1069.20    145.38      5.84      0.00  Tank
  2                  110.65    140.11     10.23      0.00  Tank
  3                 2985.41    158.28     12.69      0.00  Tank
   
   
  Link Results at 0:15:00 hrs:
  ----------------------------------------------
                       Flow  Velocity  Headloss
  Link                  gpm       fps   /1000ft
  ----------------------------------------------
  20               -2985.41      0.12      0.00
  40               -1069.20      0.04      0.00
  50                -110.65      0.00      0.00
  60               13095.76      9.29      8.85
  101                  0.00      0.00      0.00
  103                176.23      0.28      0.03
  105               -387.08      1.10      0.44
  107                 52.23      0.15      0.01
  109                 28.38      0.05      0.00
  111               -228.47      0.65      0.16
  112                497.67      1.41      0.70
  113                  4.56      0.01      0.00
  114                127.68      0.81      0.40
  115                 -8.42      0.05      0.00
  116                110.03      0.31      0.04
  117                589.57      1.67      0.95
  119               -691.60      1.96      1.28
  120               1069.05      3.03      2.87
  121                960.55      2.72      2.35
  122                342.78      2.19      2.51
  123               9197.01      4.17      1.53
  125              13095.76      5.94      2.95
  129               3509.76      2.49      0.89
  131               3276.72      2.32      0.78
  133              -2985.41      3.05      1.60
  135                271.71      0.19      0.01
  137                 47.45      0.08      0.00
  145                224.26      1.43      1.15
  147                217.72      1.39      1.09
  149               -480.85      3.07      4.71
  151               -473.97      3.03      4.58
  153                274.07      0.78      0.23
  155                304.74      0.86      0.28
  159               -314.23      0.89      0.30
  161               -344.27      2.20      2.54
  163               -133.40      0.38      0.06
  169                182.43      1.16      0.78
  171                371.25      1.05      0.40
  173               7561.21      3.43      1.07
  175               7503.72      3.41      1.05
  177               7457.85      3.39      1.04
  179               7210.65      3.27      0.98
  180                  2.89      0.01      0.00
  181                  2.89      0.01      0.00
  183               7014.52      3.18      0.93
  185                -16.16      0.10      0.01
  186                341.16      2.18      2.49
  187               6428.50      2.92      0.79
  189               4063.88      1.84      0.34
  191              -2320.96      1.65      0.41
  193              -1578.07      1.12      0.20
  195                896.84      2.54      2.07
  197                832.27      2.36      1.80
  199               -236.93      0.67      0.18
  201              -1069.20      3.03      2.87
  202                471.30      3.01      4.54
  203                158.61      1.01      0.60
  204                471.30      1.34      0.63
  205                341.16      0.97      0.35
  207                395.54      1.12      0.45
  209                131.91      0.84      0.43
  211                569.86      1.62      0.89
  213                209.25      0.59      0.14
  215                231.34      0.66      0.17
  217               -211.99      0.60      0.14
  219               -229.67      0.65      0.17
  221                229.67      1.47      1.20
  223                 88.17      0.25      0.03
  225                107.08      0.30      0.04
  229               4063.88      2.88      1.00
  231               3741.00      2.65      0.86
  233               3495.06      2.48      0.88
  235                190.44      0.54      0.12
  237                497.01      1.41      0.69
  238                708.59      2.01      1.34
  239                288.60      0.82      0.25
  240                708.59      2.01      1.34
  241                708.59      2.01      1.34
  243                707.62      1.13      0.33
  245                330.66      0.53      0.08
  247                200.39      0.32      0.03
  249                 98.06      0.16      0.01
  251                 45.87      0.10      0.00
  257                 25.31      0.07      0.00
  261                114.80      0.73      0.33
  263                 18.29      0.05      0.00
  269                367.34      1.04      0.40
  271                -25.27      0.16      0.02
  273                375.27      1.06      0.41
  275                124.99      0.35      0.05
  277                  4.82      0.01      0.00
  281                120.17      0.49      0.12
  283                200.77      0.57      0.13
  285                -97.89      0.28      0.03
  287                139.94      0.57      0.16
  289               -110.65      0.45      0.10
  291                 60.52      0.25      0.03
  293                -76.06      0.49      0.15
  295                102.88      0.29      0.04
  297                451.27      2.88      4.18
  299                216.84      1.38      1.08
  301                216.84      1.38      1.08
  303                234.43      1.50      1.24
  305                138.29      0.39      0.06
  307                372.73      1.06      0.41
  309                182.78      1.17      0.78
  311                 48.55      0.14      0.01
  313                415.91      1.18      0.50
  315              -2474.91      1.76      0.46
  317                 92.18      0.59      0.22
  319                 98.26      0.28      0.03
  321               7197.31      3.27      0.97
  323                196.42      0.56      0.12
  325                153.95      0.98      0.57
  329              13095.76      5.94      2.98
  330                  0.00      0.00      0.00
  333                 -0.00      0.00      0.00
  10                   0.00      0.00      0.00  Pump
  335              13095.76      0.00    -93.99  Pump
   
   
  Node Results at 0:20:00 hrs:
  --------------------------------------------------------
                     Demand      Head  Pressure  Chemical
  Node                  gpm        ft       psi      mg/L
  --------------------------------------------------------
  10                   0.00    149.54      1.10      0.00
  15                 473.97    140.09     46.84      0.00
  20                   0.00    158.38     12.73      0.00
  35                1578.07    149.00     59.15      0.00
  40                   0.00    145.51      5.90      0.00
  50                   0.00    140.14     10.24      0.00
  60                   0.00    209.11     90.61      0.00
  601                  0.00    303.13    131.35      0.00
  61                   0.00    303.13    131.35      0.00
  101                210.84    149.54     46.60      0.00
  103                147.85    149.50     46.15      0.00
  105                150.26    150.65     52.93      0.00
  107                 60.65    150.63     55.74      0.00
  109                256.85    149.50     55.98      0.00
  111                157.55    149.83     60.59      0.00
  113                 22.21    149.83     64.05      0.00
  115                 57.83    150.64     59.21      0.00
  117                130.66    153.43     60.59      0.00
  119                195.50    159.92     68.43      0.00
  120                  0.00    157.83     68.39      0.00
  121                 46.21    162.98     71.49      0.00
  123                  0.00    167.40     67.77      0.00
  125                 50.62    162.16     65.50      0.00
  127                 19.60    159.63     44.90      0.00
  129                  0.00    159.62     47.07      0.00
  131                 47.45    159.61     66.56      0.00
  139                  6.54    156.47     54.37      0.00
  141                 10.93    154.25     65.10      0.00
  143                  6.88    147.66     65.93      0.00
  145                 30.67    155.06     66.75      0.00
  147                  9.49    155.67     59.44      0.00
  149                 30.05    155.93     60.63      0.00
  151                160.37    158.52     54.17      0.00
  153                 49.03    158.59     40.03      0.00
  157                 57.49    157.70     62.66      0.00
  159                 45.87    154.65     64.41      0.00
  161                 17.54    152.57     64.38      0.00
  163                 10.46    152.15     63.76      0.00
  164                  0.00    152.15     63.76      0.00
  166                  2.89    152.15     66.80      0.00
  167                 16.16    150.44     67.35      0.00
  169                  0.00    150.44     67.35      0.00
  171                 43.67    149.44     66.49      0.00
  173                  0.00    149.42     66.48      0.00
  177                 64.57    148.95     61.07      0.00
  179                  0.00    148.89     61.05      0.00
  181                  0.00    149.01     61.10      0.00
  183                  0.00    148.93     59.76      0.00
  184                  0.00    148.17     57.27      0.00
  185                 28.47    148.62     57.46      0.00
  187                  0.00    149.33     59.29      0.00
  189                119.79    149.54     63.06      0.00
  191                 90.91    149.69     54.03      0.00
  193                 79.15    149.76     57.09      0.00
  195                  0.00    149.82     58.20      0.00
  197                 18.91    149.72     54.91      0.00
  199                132.45    145.42     63.88      0.00
  201                 49.52    144.88     62.73      0.00
  203               3495.06    144.77     61.86      0.00
  204                  0.00    149.08     55.50      0.00
  205                 72.55    145.31     53.86      0.00
  206                  0.00    143.87     61.90      0.00
  207                 77.02    144.47     58.70      0.00
  208                  0.00    143.18     55.11      0.00
  209                  0.97    141.98     62.39      0.00
  211                  9.62    141.58     58.31      0.00
  213                 15.47    141.50     58.28      0.00
  215                102.33    141.37     58.22      0.00
  217                 26.88    141.35     58.65      0.00
  219                 45.87    141.34     59.51      0.00
  225                 25.31    141.35     57.78      0.00
  229                 71.24    140.76     56.44      0.00
  231                 18.29    140.76     58.82      0.00
  237                 17.33    140.75     54.92      0.00
  239                 49.52    140.53     55.26      0.00
  241                  0.00    140.53     55.26      0.00
  243                  4.82    140.53     54.83      0.00
  247                 78.12    140.48     53.07      0.00
  249                  0.00    140.48     53.07      0.00
  251                 26.82    140.42     47.85      0.00
  253                 60.52    140.21     45.15      0.00
  255                 44.83    140.25     49.07      0.00
  257                  0.00    155.13     59.85      0.00
  259                  0.00    154.75     56.22      0.00
  261                  0.00    153.39     66.46      0.00
  263                  0.00    153.24     66.40      0.00
  265                  0.00    150.99     65.42      0.00
  267                  0.00    149.75     55.79      0.00
  269                  0.00    149.86     64.94      0.00
  271                  0.00    149.13     62.02      0.00
  273                  0.00    145.33     59.51      0.00
  275                  0.00    144.84     58.43      0.00
  River           -13092.74    220.00      0.00      0.00  Reservoir
  Lake                 0.00    167.00      0.00      0.00  Reservoir
  1                 1064.44    145.51      5.90      0.00  Tank
  2                  113.73    140.14     10.24      0.00  Tank
  3                 2984.07    158.38     12.73      0.00  Tank
   
   
  Link Results at 0:20:00 hrs:
  ----------------------------------------------
                       Flow  Velocity  Headloss
  Link                  gpm       fps   /1000ft
  ----------------------------------------------
  20               -2984.07      0.12      0.00
  40               -1064.44      0.04      0.00
  50                -113.73      0.00      0.00
  60               13092.74      9.29      8.85
  101                  0.00      0.00      0.00
  103                176.18      0.28      0.03
  105               -387.02      1.10      0.44
  107                 52.18      0.15      0.01
  109                 28.32      0.05      0.00
  111               -228.53      0.65      0.16
  112                497.53      1.41      0.70
  113                  4.44      0.01      0.00
  114                127.64      0.81      0.40
  115                 -8.47      0.05      0.00
  116                109.87      0.31      0.04
  117                589.46      1.67      0.95
  119               -691.47      1.96      1.28
  120               1068.87      3.03      2.87
  121                960.39      2.72      2.35
  122                342.72      2.19      2.51
  123               9195.38      4.17      1.53
  125              13092.74      5.94      2.94
  129               3508.44      2.49      0.89
  131               3275.40      2.32      0.78
  133              -2984.07      3.05      1.59
  135                271.73      0.19      0.01
  137                 47.45      0.08      0.00
  145                224.28      1.43      1.15
  147                217.74      1.39      1.09
  149               -480.85      3.07      4.71
  151               -473.97      3.03      4.58
  153                274.05      0.78      0.23
  155                304.71      0.86      0.28
  159               -314.21      0.89      0.30
  161               -344.25      2.20      2.53
  163               -133.39      0.38      0.06
  169                182.42      1.16      0.78
  171                371.24      1.05      0.40
  173               7559.77      3.43      1.06
  175               7502.28      3.41      1.05
  177               7456.42      3.38      1.04
  179               7209.25      3.27      0.98
  180                  2.89      0.01      0.00
  181                  2.89      0.01      0.00
  183               7013.17      3.18      0.93
  185                -16.16      0.10      0.01
  186                341.16      2.18      2.49
  187               6427.42      2.92      0.79
  189               4066.49      1.85      0.34
  191              -2317.26      1.64      0.41
  193              -1578.07      1.12      0.20
  195                893.06      2.53      2.06
  197                828.49      2.35      1.79
  199               -235.95      0.67      0.17
  201              -1064.44      3.02      2.85
  202                471.77      3.01      4.54
  203                159.08      1.02      0.61
  204                471.77      1.34      0.63
  205                341.16      0.97      0.35
  207                395.03      1.12      0.45
  209                131.99      0.84      0.43
  211                569.59      1.62      0.89
  213                209.17      0.59      0.14
  215                231.09      0.66      0.17
  217               -211.99      0.60      0.14
  219               -229.62      0.65      0.17
  221                229.62      1.47      1.20
  223                 88.09      0.25      0.03
  225                107.01      0.30      0.04
  229               4066.49      2.88      1.00
  231               3742.72      2.65      0.86
  233               3495.06      2.48      0.88
  235                191.33      0.54      0.12
  237                498.32      1.41      0.70
  238                711.67      2.02      1.35
  239                290.37      0.82      0.26
  240                711.67      2.02      1.35
  241                711.67      2.02      1.35
  243                710.70      1.13      0.33
  245                331.39      0.53      0.08
  247                200.39      0.32      0.03
  249                 98.06      0.16      0.01
  251                 45.87      0.10      0.00
  257                 25.31      0.07      0.00
  261                115.53      0.74      0.34
  263                 18.29      0.05      0.00
  269                369.69      1.05      0.40
  271                -26.00      0.17      0.02
  273                378.35      1.07      0.42
  275                126.14      0.36      0.05
  277                  4.82      0.01      0.00
  281                121.33      0.50      0.12
  283                202.69      0.57      0.13
  285                -98.68      0.28      0.03
  287                141.89      0.58      0.17
  289               -113.73      0.46      0.11
  291                 60.52      0.25      0.03
  293                -77.19      0.49      0.16
  295                104.01      0.30      0.04
  297                451.20      2.88      4.18
  299                216.80      1.38      1.08
  301                216.80      1.38      1.08
  303                234.39      1.50      1.24
  305                138.27      0.39      0.06
  307                372.66      1.06      0.41
  309                182.74      1.17      0.78
  311                 48.35      0.14      0.01
  313                415.72      1.18      0.50
  315              -2471.13      1.75      0.46
  317                 92.22      0.59      0.22
  319                 99.11      0.28      0.04
  321               7195.91      3.27      0.97
  323                198.15      0.56      0.13
  325                153.87      0.98      0.57
  329              13092.74      5.94      2.98
  330                  0.00      0.00      0.00
  333                 -0.00      0.00      0.00
  10                   0.00      0.00      0.00  Pump
  335              13092.74      0.00    -94.02  Pump
   
   
  Node Results at 0:25:00 hrs:
  --------------------------------------------------------
                     Demand      Head  Pressure  Chemical
  Node                  gpm        ft       psi      mg/L
  --------------------------------------------------------
  10                   0.00    149.63      1.14      0.00
  15                 473.97    140.19     46.88      0.00
  20                   0.00    158.47     12.77      0.00
  35                1578.07    149.10     59.19      0.00
  40                   0.00    145.63      5.95      0.00
  50                   0.00    140.18     10.26      0.00
  60                   0.00    209.12     90.61      0.00
  601                  0.00    303.16    131.36      0.00
  61                   0.00    303.16    131.36      0.00
  101                210.84    149.63     46.64      0.00
  103                147.85    149.60     46.19      0.00
  105                150.26    150.74     52.97      0.00
  107                 60.65    150.73     55.78      0.00
  109                256.85    149.60     56.02      0.00
  111                157.55    149.93     60.63      0.00
  113                 22.21    149.93     64.10      0.00
  115                 57.83    150.73     59.25      0.00
  117                130.66    153.52     60.63      0.00
  119                195.50    160.01     68.47      0.00
  120                  0.00    157.92     68.43      0.00
  121                 46.21    163.07     71.52      0.00
  123                  0.00    167.48     67.80      0.00
  125                 50.62    162.25     65.54      0.00
  127                 19.60    159.72     44.94      0.00
  129                  0.00    159.72     47.11      0.00
  131                 47.45    159.70     66.60      0.00
  139                  6.54    156.56     54.41      0.00
  141                 10.93    154.34     65.14      0.00
  143                  6.88    147.75     65.97      0.00
  145                 30.67    155.15     66.79      0.00
  147                  9.49    155.76     59.48      0.00
  149                 30.05    156.03     60.67      0.00
  151                160.37    158.61     54.21      0.00
  153                 49.03    158.68     40.07      0.00
  157                 57.49    157.80     62.70      0.00
  159                 45.87    154.74     64.45      0.00
  161                 17.54    152.67     64.42      0.00
  163                 10.46    152.25     63.80      0.00
  164                  0.00    152.25     63.80      0.00
  166                  2.89    152.25     66.84      0.00
  167                 16.16    150.54     67.39      0.00
  169                  0.00    150.54     67.39      0.00
  171                 43.67    149.54     66.53      0.00
  173                  0.00    149.52     66.52      0.00
  177                 64.57    149.04     61.11      0.00
  179                  0.00    148.99     61.09      0.00
  181                  0.00    149.11     61.14      0.00
  183                  0.00    149.03     59.81      0.00
  184                  0.00    148.26     57.31      0.00
  185                 28.47    148.72     57.51      0.00
  187                  0.00    149.42     59.33      0.00
  189                119.79    149.64     63.11      0.00
  191                 90.91    149.78     54.07      0.00
  193                 79.15    149.86     57.13      0.00
  195                  0.00    149.92     58.24      0.00
  197                 18.91    149.81     54.95      0.00
  199                132.45    145.51     63.92      0.00
  201                 49.52    144.97     62.77      0.00
  203               3495.06    144.86     61.90      0.00
  204                  0.00    149.17     55.54      0.00
  205                 72.55    145.40     53.90      0.00
  206                  0.00    143.95     61.94      0.00
  207                 77.02    144.56     58.74      0.00
  208                  0.00    143.25     55.14      0.00
  209                  0.97    142.05     62.42      0.00
  211                  9.62    141.64     58.34      0.00
  213                 15.47    141.56     58.31      0.00
  215                102.33    141.43     58.25      0.00
[...]
  219                 78.92    135.69     57.06      0.00
  225                 43.55    135.70     55.33      0.00
  229                122.58    136.00     54.38      0.00
  231                 31.48    135.99     56.76      0.00
  237                 29.82    136.24     52.97      0.00
  239                 85.21    136.26     53.41      0.00
  241                  0.00    136.26     53.41      0.00
  243                  8.29    136.26     52.97      0.00
  247                134.43    136.28     51.25      0.00
  249                  0.00    136.28     51.25      0.00
  251                 46.15    136.33     46.07      0.00
  253                104.13    136.77     43.67      0.00
  255                 77.14    136.88     47.61      0.00
  257                  0.00    149.20     57.28      0.00
  259                  0.00    148.68     53.59      0.00
  261                  0.00    146.81     63.61      0.00
  263                  0.00    146.61     63.53      0.00
  265                  0.00    146.26     63.37      0.00
  267                  0.00    144.27     53.41      0.00
  269                  0.00    144.94     62.80      0.00
  271                  0.00    144.58     60.05      0.00
  273                  0.00    138.40     56.50      0.00
  275                  0.00    137.63     55.30      0.00
  River           -13248.62    220.00      0.00      0.00  Reservoir
  Lake                 0.00    167.00      0.00      0.00  Reservoir
  1                 -881.39    146.95      6.52      0.00  Tank
  2                 -561.75    138.84      9.68      0.00  Tank
  3                  251.85    159.19     13.08      0.00  Tank
   
   
  Link Results at 23:55:00 hrs:
  ----------------------------------------------
                       Flow  Velocity  Headloss
  Link                  gpm       fps   /1000ft
  ----------------------------------------------
  20                -251.85      0.01      0.00
  40                 881.39      0.04      0.00
  50                 561.75      0.02      0.00
  60               13248.62      9.40      9.04
  101                  0.00      0.00      0.00
  103                118.85      0.19      0.01
  105               -481.66      1.37      0.66
  107                -27.01      0.08      0.00
  109               -135.56      0.22      0.02
  111               -577.54      1.64      0.92
  112                431.69      1.22      0.53
  113               -251.53      0.71      0.20
  114                 73.44      0.47      0.15
  115               -131.37      0.84      0.43
  116               -216.30      0.61      0.15
  117                713.20      2.02      1.36
  119               -736.01      2.09      1.44
  120               1286.17      3.65      4.04
  121               1138.50      3.23      3.22
  122                387.88      2.48      3.16
  123               9936.13      4.51      1.77
  125              11337.98      5.15      2.26
  129                934.45      0.66      0.08
  131                628.53      0.45      0.04
  133               -251.85      0.26      0.02
  135                342.96      0.24      0.01
  137                 81.65      0.13      0.01
  145                261.31      1.67      1.52
  147                250.06      1.60      1.40
  149               -368.65      2.35      2.88
  151               -356.81      2.28      2.71
  153                137.41      0.39      0.06
  155                190.18      0.54      0.12
  159               -206.51      0.59      0.14
  161               -258.22      1.65      1.49
  163               -134.46      0.38      0.06
  169                218.82      1.40      1.10
  171                399.72      1.13      0.46
  173               7913.84      3.59      1.16
  175               7814.93      3.55      1.13
  177               7736.00      3.51      1.11
  179               7419.91      3.37      1.03
  180                  4.97      0.01      0.00
  181                  4.97      0.01      0.00
  183               7160.86      3.25      0.96
  185                -27.81      0.18      0.02
  186                265.50      1.69      1.57
  187               6474.29      2.94      0.80
  189               5141.31      2.33      0.52
  191              -1257.83      0.89      0.13
  193              -1677.47      1.19      0.23
  195               -315.13      0.89      0.30
  197               -426.23      1.21      0.52
  199                455.16      1.29      0.59
  201                881.39      2.50      2.01
  202                569.39      3.63      6.44
  203                352.89      2.25      2.65
  204                569.39      1.62      0.89
  205                265.50      0.75      0.22
  207               -102.27      0.29      0.04
  209                278.99      1.78      1.72
  211                658.76      1.87      1.17
  213                -13.49      0.04      0.00
  215               -171.41      0.49      0.10
  217               -340.91      0.97      0.35
  219               -285.92      0.81      0.25
  221                285.92      1.82      1.80
  223               -197.97      0.56      0.13
  225               -165.42      0.47      0.09
  229               5141.31      3.65      1.55
  231               4746.54      3.37      1.33
  233               4673.10      3.31      1.51
  235                166.87      0.47      0.09
  237                493.85      1.40      0.69
  238                467.13      1.33      0.62
  239                105.82      0.30      0.04
  240                467.13      1.33      0.62
  241                467.13      1.33      0.62
  243                465.47      0.74      0.15
  245                416.12      0.66      0.12
  247                344.81      0.55      0.09
  249                168.73      0.27      0.02
  251                 78.92      0.16      0.01
  257                 43.55      0.12      0.01
  261                 44.68      0.29      0.06
  263                 31.48      0.09      0.00
  269                 32.79      0.09      0.00
  271                109.38      0.70      0.30
  273               -106.40      0.30      0.04
  275                -66.66      0.19      0.02
  277                  8.29      0.02      0.00
  281                -74.95      0.31      0.05
  283               -124.95      0.35      0.05
  285                 28.04      0.08      0.00
  287               -237.41      0.97      0.43
  289                561.75      2.29      2.12
  291                104.13      0.43      0.09
  293                143.06      0.91      0.50
  295                -96.92      0.27      0.03
  297                535.55      3.42      5.75
  299                257.65      1.64      1.48
  301                257.65      1.64      1.48
  303                277.89      1.77      1.70
  305                177.66      0.50      0.10
  307                455.55      1.29      0.59
  309                236.09      1.51      1.26
  311               -407.50      1.16      0.48
  313                554.25      1.57      0.85
  315              -1362.34      0.97      0.15
  317                117.58      0.75      0.35
  319                 49.29      0.14      0.01
  321               7396.95      3.36      1.02
  323                -11.76      0.03      0.00
  325                104.51      0.67      0.28
  329              13248.62      6.01      3.05
  330                  0.00      0.00      0.00
  333                 -0.00      0.00      0.00
  10                   0.00      0.00      0.00  Pump
  335              13248.62      0.00    -92.64  Pump
   
   
  Node Results at 24:00:00 hrs:
  --------------------------------------------------------
                     Demand      Head  Pressure  Chemical
  Node                  gpm        ft       psi      mg/L
  --------------------------------------------------------
  10                   0.00    150.27      1.42      0.00
  15                 473.97    140.86     47.17      0.00
  20                   0.00    159.19     13.08      0.00
  35                1578.07    149.75     59.47      0.00
  40                   0.00    146.84      6.48      0.00
  50                   0.00    138.64      9.60      0.00
  60                   0.00    209.15     90.62      0.00
  601                  0.00    303.38    131.46      0.00
  61                   0.00    303.38    131.46      0.00
  101                210.84    150.27     46.92      0.00
  103                147.85    150.24     46.47      0.00
  105                150.26    151.38     53.25      0.00
  107                 60.65    151.37     56.06      0.00
  109                256.85    150.24     56.30      0.00
  111                157.55    150.57     60.91      0.00
  113                 22.21    150.57     64.37      0.00
  115                 57.83    151.37     59.52      0.00
  117                130.66    154.16     60.91      0.00
  119                195.50    160.66     68.75      0.00
  120                  0.00    158.56     68.71      0.00
  121                 46.21    163.72     71.81      0.00
  123                  0.00    168.12     68.08      0.00
  125                 50.62    162.91     65.82      0.00
  127                 19.60    160.42     45.25      0.00
  129                  0.00    160.42     47.41      0.00
  131                 47.45    160.40     66.90      0.00
  139                  6.54    157.25     54.70      0.00
  141                 10.93    155.01     65.43      0.00
  143                  6.88    148.42     66.26      0.00
  145                 30.67    155.81     67.08      0.00
  147                  9.49    156.43     59.76      0.00
  149                 30.05    156.69     60.96      0.00
  151                160.37    159.26     54.49      0.00
  153                 49.03    159.33     40.36      0.00
  157                 57.49    158.44     62.98      0.00
  159                 45.87    155.38     64.73      0.00
  161                 17.54    153.30     64.69      0.00
  163                 10.46    152.88     64.08      0.00
  164                  0.00    152.88     64.08      0.00
  166                  2.89    152.88     67.11    140.00
  167                 16.16    151.17     67.67      0.00
  169                  0.00    151.17     67.67      0.00
  171                 43.67    150.16     66.80      0.00
  173                  0.00    150.15     66.79      0.00
  177                 64.57    149.71     61.40      0.00
  179                  0.00    149.66     61.38      0.00
  181                  0.00    149.76     61.42      0.00
  183                  0.00    149.69     60.10      0.00
  184                  0.00    148.86     57.57      0.00
  185                 28.47    149.34     57.78      0.00
  187                  0.00    150.06     59.60      0.00
  189                119.79    150.28     63.38      0.00
  191                 90.91    150.42     54.34      0.00
  193                 79.15    150.50     57.41      0.00
  195                  0.00    150.56     58.52      0.00
  197                 18.91    150.45     55.23      0.00
  199                132.45    145.97     64.12      0.00
  201                 49.52    145.42     62.97      0.00
  203               3495.06    145.31     62.10      0.00
  204                  0.00    149.81     55.81      0.00
  205                 72.55    145.82     54.09      0.00
  206                  0.00    144.05     61.98      0.00
  207                 77.02    144.84     58.86      0.00
  208                  0.00    143.16     55.10      0.00
  209                  0.97    141.62     62.23      0.00
  211                  9.62    141.10     58.10      0.00
  213                 15.47    141.01     58.07      0.00
  215                102.33    140.87     58.01      0.00
  217                 26.88    140.86     58.43      0.00
  219                 45.87    140.85     59.30      0.00
  225                 25.31    140.85     57.57      0.00
  229                 71.24    139.95     56.09      0.00
  231                 18.29    139.95     58.47      0.00
  237                 17.33    139.89     54.55      0.00
  239                 49.52    139.56     54.84      0.00
  241                  0.00    139.55     54.84      0.00
  243                  4.82    139.55     54.40      0.00
  247                 78.12    139.46     52.63      0.00
  249                  0.00    139.46     52.63      0.00
  251                 26.82    139.36     47.39      0.00
  253                 60.52    138.95     44.61      0.00
  255                 44.83    138.99     48.52      0.00
  257                  0.00    155.86     60.17      0.00
  259                  0.00    155.49     56.54      0.00
  261                  0.00    154.12     66.78      0.00
  263                  0.00    153.98     66.72      0.00
  265                  0.00    151.71     65.74      0.00
  267                  0.00    150.49     56.11      0.00
  269                  0.00    150.60     65.25      0.00
  271                  0.00    149.87     62.34      0.00
  273                  0.00    145.86     59.73      0.00
  275                  0.00    145.36     58.65      0.00
  River           -13068.21    220.00      0.00      0.00  Reservoir
  Lake                 0.00    167.00      0.00      0.00  Reservoir
  1                  963.70    146.84      6.48      0.00  Tank
  2                  219.55    138.64      9.60      0.00  Tank
  3                 2954.46    159.19     13.08      0.00  Tank
   
   
  Link Results at 24:00:00 hrs:
  ----------------------------------------------
                       Flow  Velocity  Headloss
  Link                  gpm       fps   /1000ft
  ----------------------------------------------
  20               -2954.46      0.12      0.00
  40                -963.70      0.04      0.00
  50                -219.55      0.01      0.00
  60               13068.21      9.27      8.81
  101                  0.00      0.00      0.00
  103                176.21      0.28      0.03
  105               -387.06      1.10      0.44
  107                 52.21      0.15      0.01
  109                 28.36      0.05      0.00
  111               -228.49      0.65      0.16
  112                497.61      1.41      0.70
  113                  4.37      0.01      0.00
  114                127.66      0.81      0.40
  115                 -8.44      0.05      0.00
  116                109.82      0.31      0.04
  117                589.53      1.67      0.95
  119               -691.55      1.96      1.28
  120               1068.92      3.03      2.87
  121                960.49      2.72      2.35
  122                342.81      2.19      2.52
  123               9199.43      4.18      1.53
  125              13068.21      5.93      2.93
  129               3479.76      2.47      0.87
  131               3246.50      2.30      0.77
  133              -2954.46      3.02      1.57
  135                272.44      0.19      0.01
  137                 47.45      0.08      0.00
  145                224.99      1.44      1.15
  147                218.45      1.39      1.09
  149               -480.85      3.07      4.71
  151               -473.97      3.03      4.58
  153                273.34      0.78      0.23
  155                304.00      0.86      0.28
  159               -313.50      0.89      0.30
  161               -343.54      2.19      2.53
  163               -133.61      0.38      0.06
  169                182.64      1.17      0.78
  171                370.30      1.05      0.40
  173               7564.70      3.43      1.07
  175               7507.22      3.41      1.05
  177               7461.35      3.39      1.04
  179               7214.50      3.27      0.98
  180                  2.89      0.01      0.00
  181                  2.89      0.01      0.00
  183               7019.20      3.19      0.93
  185                -16.16      0.10      0.01
  186                344.71      2.20      2.54
  187               6438.04      2.92      0.79
  189               4156.75      1.89      0.35
  191              -2237.63      1.59      0.38
  193              -1578.07      1.12      0.20
  195                812.53      2.30      1.73
  197                747.96      2.12      1.48
  199               -215.74      0.61      0.15
  201               -963.70      2.73      2.37
  202                487.33      3.11      4.82
  203                171.09      1.09      0.69
  204                487.33      1.38      0.67
  205                344.71      0.98      0.35
  207                386.83      1.10      0.44
  209                134.51      0.86      0.44
  211                565.00      1.60      0.88
  213                210.21      0.60      0.14
  215                229.10      0.65      0.17
  217               -212.84      0.60      0.14
  219               -229.31      0.65      0.17
  221                229.31      1.46      1.19
  223                 88.28      0.25      0.03
  225                107.20      0.30      0.04
  229               4156.75      2.95      1.04
  231               3801.42      2.70      0.88
  233               3495.06      2.48      0.88
  235                222.89      0.63      0.16
  237                544.33      1.54      0.82
  238                817.49      2.32      1.75
  239                350.18      0.99      0.36
  240                817.49      2.32      1.75
  241                817.49      2.32      1.75
  243                816.52      1.30      0.43
  245                356.08      0.57      0.09
  247                200.39      0.32      0.03
  249                 98.06      0.16      0.01
  251                 45.87      0.10      0.00
  257                 25.31      0.07      0.00
  261                140.21      0.89      0.48
  263                 18.29      0.05      0.00
  269                450.82      1.28      0.58
  271                -50.68      0.32      0.07
  273                484.18      1.37      0.66
  275                165.78      0.47      0.09
  277                  4.82      0.01      0.00
  281                160.96      0.66      0.21
  283                268.88      0.76      0.22
  285               -126.08      0.36      0.05
  287                208.92      0.85      0.34
  289               -219.55      0.90      0.37
  291                 60.52      0.25      0.03
  293               -115.98      0.74      0.34
  295                142.80      0.41      0.07
  297                451.24      2.88      4.18
  299                216.83      1.38      1.08
  301                216.83      1.38      1.08
  303                234.42      1.50      1.24
  305                138.28      0.39      0.06
  307                372.70      1.06      0.41
  309                181.96      1.16      0.78
  311                 47.14      0.13      0.01
  313                412.02      1.17      0.49
  315              -2390.60      1.70      0.44
  317                 93.34      0.60      0.23
  319                129.55      0.37      0.06
  321               7201.16      3.27      0.97
  323                256.84      0.73      0.20
  325                152.97      0.98      0.56
  329              13068.21      5.93      2.97
  330                  0.00      0.00      0.00
  333                 -0.00      0.00      0.00
  10                   0.00      0.00      0.00  Pump
  335              13068.21      0.00    -94.23  Pump
   
  Analysis ended Wed May 06 17:52:34 2020
