  Page 1                                    Wed May 06 17:53:48 2020

  ******************************************************************
  *                           E P A N E T                          *
  *                   Hydraulic and Water Quality                  *
  *                   Analysis for Pipe Networks                   *
  *                         Version 2.00.12                        *
  ******************************************************************
  
  Analysis begun Wed May 06 17:53:48 2020

   
  Hydraulic Status:
  -----------------------------------------------------------------------
     0:00:00: Balanced after 6 trials
     0:00:00: Reservoir River is emptying
     0:00:00: Reservoir Lake is closed
     0:00:00: Tank 1 is filling at 13.10 ft
     0:00:00: Tank 2 is emptying at 23.50 ft
     0:00:00: Tank 3 is filling at 29.00 ft
   
     0:05:00: Balanced after 2 trials
   
     0:10:00: Balanced after 2 trials
   
     0:15:00: Balanced after 2 trials
   
     0:20:00: Balanced after 2 trials
   
     0:25:00: Balanced after 2 trials
   
     0:30:00: Balanced after 2 trials
   
     0:35:00: Balanced after 2 trials
   
     0:40:00: Balanced after 2 trials
   
     0:45:00: Balanced after 2 trials
   
     0:50:00: Balanced after 2 trials
   
     0:55:00: Balanced after 2 trials
   
     1:00:00: Pump 10 changed by timer control
     1:00:00: Balanced after 7 trials
     1:00:00: Reservoir Lake is emptying
     1:00:00: Tank 2 is filling at 21.94 ft
     1:00:00: Pump 10 changed from closed to open
   
     1:05:00: Balanced after 1 trials
   
     1:10:00: Balanced after 1 trials
   
     1:15:00: Balanced after 1 trials
   
     1:20:00: Balanced after 1 trials
   
     1:25:00: Balanced after 1 trials
   
     1:30:00: Balanced after 1 trials
   
     1:35:00: Balanced after 1 trials
   
     1:40:00: Balanced after 1 trials
   
     1:45:00: Balanced after 1 trials
   
     1:50:00: Balanced after 1 trials
   
     1:55:00: Balanced after 1 trials
   
     2:00:00: Balanced after 3 trials
   
     2:05:00: Balanced after 1 trials
   
     2:10:00: Balanced after 1 trials
   
     2:15:00: Balanced after 1 trials
   
     2:20:00: Balanced after 1 trials
   
     2:25:00: Balanced after 1 trials
   
     2:30:00: Balanced after 1 trials
   
     2:35:00: Balanced after 1 trials
   
     2:40:00: Balanced after 1 trials
   
     2:45:00: Balanced after 1 trials
   
     2:50:00: Balanced after 1 trials
   
     2:55:00: Balanced after 1 trials
   
     3:00:00: Balanced after 2 trials
   
     3:05:00: Balanced after 1 trials
   
     3:10:00: Balanced after 1 trials
   
     3:15:00: Balanced after 1 trials
   
     3:20:00: Balanced after 1 trials
   
     3:25:00: Balanced after 1 trials
   
     3:30:00: Balanced after 1 trials
   
     3:35:00: Balanced after 1 trials
   
     3:40:00: Balanced after 1 trials
   
     3:45:00: Balanced after 1 trials
   
     3:50:00: Balanced after 1 trials
   
     3:55:00: Balanced after 1 trials
   
     4:00:00: Balanced after 3 trials
   
     4:05:00: Balanced after 1 trials
   
     4:07:44: Pump 335 changed by Tank 1 control
     4:07:44: Pipe 330 changed by Tank 1 control
     4:07:44: Balanced after 4 trials
     4:07:44: Pipe 330 changed from closed to open
     4:07:44: Pump 335 changed from open to closed
   
     4:10:00: Balanced after 1 trials
   
     4:15:00: Balanced after 2 trials
   
     4:20:00: Balanced after 2 trials
   
     4:25:00: Balanced after 2 trials
   
     4:30:00: Balanced after 2 trials
   
     4:35:00: Balanced after 2 trials
   
     4:40:00: Balanced after 2 trials
   
     4:45:00: Balanced after 2 trials
   
     4:50:00: Balanced after 2 trials
   
     4:55:00: Balanced after 2 trials
   
     5:00:00: Balanced after 3 trials
     5:00:00: Tank 3 is emptying at 34.45 ft
   
     5:05:00: Balanced after 2 trials
   
     5:10:00: Balanced after 2 trials
   
     5:15:00: Balanced after 2 trials
   
     5:20:00: Balanced after 2 trials
   
     5:25:00: Balanced after 2 trials
   
     5:30:00: Balanced after 2 trials
   
     5:35:00: Balanced after 2 trials
   
     5:40:00: Balanced after 2 trials
   
     5:45:00: Balanced after 2 trials
   
     5:50:00: Balanced after 2 trials
   
     5:55:00: Balanced after 2 trials
   
     6:00:00: Balanced after 3 trials
     6:00:00: Tank 3 is filling at 34.27 ft
   
     6:05:00: Balanced after 2 trials
   
     6:10:00: Balanced after 2 trials
   
     6:15:00: Balanced after 2 trials
   
     6:20:00: Balanced after 2 trials
   
     6:25:00: Balanced after 2 trials
   
     6:30:00: Balanced after 2 trials
   
     6:35:00: Balanced after 2 trials
   
     6:40:00: Balanced after 2 trials
   
     6:45:00: Balanced after 2 trials
   
     6:50:00: Balanced after 2 trials
   
     6:55:00: Balanced after 2 trials
   
     7:00:00: Balanced after 3 trials
   
     7:05:00: Balanced after 1 trials
   
     7:10:00: Balanced after 1 trials
   
     7:15:00: Balanced after 1 trials
   
     7:20:00: Balanced after 1 trials
   
     7:25:00: Balanced after 1 trials
   
     7:30:00: Balanced after 1 trials
   
     7:35:00: Balanced after 1 trials
   
     7:40:00: Balanced after 1 trials
   
     7:45:00: Balanced after 1 trials
   
     7:50:00: Balanced after 1 trials
   
     7:55:00: Balanced after 1 trials
   
     8:00:00: Balanced after 3 trials
     8:00:00: Tank 1 is emptying at 22.01 ft
     8:00:00: Tank 2 is emptying at 27.58 ft
   
     8:05:00: Balanced after 2 trials
   
     8:10:00: Balanced after 2 trials
   
     8:15:00: Balanced after 2 trials
   
     8:20:00: Balanced after 2 trials
   
     8:25:00: Balanced after 2 trials
   
     8:30:00: Balanced after 2 trials
   
     8:35:00: Balanced after 2 trials
   
     8:40:00: Balanced after 2 trials
   
     8:45:00: Balanced after 2 trials
   
     8:50:00: Balanced after 1 trials
   
     8:55:00: Balanced after 1 trials
   
     9:00:00: Balanced after 3 trials
     9:00:00: Tank 1 is filling at 21.78 ft
     9:00:00: Tank 2 is filling at 27.39 ft
     9:00:00: Tank 3 is emptying at 35.33 ft
   
     9:05:00: Balanced after 2 trials
   
     9:10:00: Balanced after 2 trials
   
     9:15:00: Balanced after 2 trials
   
     9:20:00: Balanced after 2 trials
   
     9:25:00: Balanced after 2 trials
   
     9:30:00: Balanced after 2 trials
   
     9:35:00: Balanced after 2 trials
   
     9:40:00: Balanced after 2 trials
   
     9:45:00: Balanced after 2 trials
   
     9:50:00: Balanced after 2 trials
   
     9:55:00: Balanced after 2 trials
   
    10:00:00: Balanced after 3 trials
   
    10:05:00: Balanced after 2 trials
   
    10:10:00: Balanced after 2 trials
   
    10:15:00: Balanced after 2 trials
   
    10:20:00: Balanced after 2 trials
   
    10:25:00: Balanced after 2 trials
   
    10:30:00: Balanced after 2 trials
   
    10:35:00: Balanced after 2 trials
   
    10:40:00: Balanced after 2 trials
   
    10:45:00: Balanced after 2 trials
   
    10:50:00: Balanced after 2 trials
   
    10:55:00: Balanced after 2 trials
   
    11:00:00: Balanced after 3 trials
    11:00:00: Tank 1 is emptying at 22.61 ft
    11:00:00: Tank 2 is emptying at 28.18 ft
   
    11:05:00: Balanced after 1 trials
   
    11:10:00: Balanced after 1 trials
   
    11:15:00: Balanced after 1 trials
   
    11:20:00: Balanced after 1 trials
   
    11:25:00: Balanced after 1 trials
   
    11:30:00: Balanced after 1 trials
   
    11:35:00: Balanced after 1 trials
   
    11:40:00: Balanced after 1 trials
   
    11:45:00: Balanced after 1 trials
   
    11:50:00: Balanced after 1 trials
   
    11:55:00: Balanced after 1 trials
   
    12:00:00: Balanced after 3 trials
   
    12:05:00: Balanced after 1 trials
   
    12:10:00: Balanced after 1 trials
   
    12:15:00: Balanced after 1 trials
   
    12:20:00: Balanced after 1 trials
   
    12:25:00: Balanced after 1 trials
   
    12:30:00: Balanced after 1 trials
   
    12:35:00: Balanced after 1 trials
   
    12:40:00: Balanced after 1 trials
   
    12:45:00: Balanced after 1 trials
   
    12:50:00: Balanced after 1 trials
   
    12:55:00: Balanced after 1 trials
   
    13:00:00: Balanced after 4 trials
    13:00:00: Tank 1 is filling at 21.57 ft
    13:00:00: Tank 2 is filling at 27.32 ft
   
    13:05:00: Balanced after 2 trials
   
    13:10:00: Balanced after 2 trials
   
    13:15:00: Balanced after 2 trials
   
    13:20:00: Balanced after 2 trials
   
    13:25:00: Balanced after 2 trials
   
    13:30:00: Balanced after 2 trials
   
    13:35:00: Balanced after 2 trials
   
    13:40:00: Balanced after 2 trials
   
    13:45:00: Balanced after 2 trials
   
    13:50:00: Balanced after 2 trials
   
    13:55:00: Balanced after 2 trials
   
    14:00:00: Balanced after 3 trials
    14:00:00: Tank 1 is emptying at 22.04 ft
   
    14:05:00: Balanced after 1 trials
   
    14:10:00: Balanced after 1 trials
   
    14:15:00: Balanced after 1 trials
   
    14:20:00: Balanced after 1 trials
   
    14:25:00: Balanced after 1 trials
   
    14:30:00: Balanced after 1 trials
   
    14:35:00: Balanced after 1 trials
   
    14:40:00: Balanced after 1 trials
   
    14:45:00: Balanced after 1 trials
   
    14:50:00: Balanced after 1 trials
   
    14:55:00: Balanced after 1 trials
   
    15:00:00: Pump 10 changed by timer control
    15:00:00: Balanced after 4 trials
    15:00:00: Reservoir Lake is closed
    15:00:00: Pump 10 changed from open to closed
   
    15:05:00: Balanced after 2 trials
   
    15:10:00: Balanced after 2 trials
   
    15:15:00: Balanced after 2 trials
   
    15:20:00: Balanced after 2 trials
   
    15:25:00: Balanced after 2 trials
   
    15:30:00: Balanced after 2 trials
   
    15:35:00: Balanced after 2 trials
   
    15:40:00: Balanced after 2 trials
   
    15:45:00: Balanced after 2 trials
   
    15:50:00: Balanced after 2 trials
   
    15:55:00: Balanced after 2 trials
   
    16:00:00: Balanced after 3 trials
    16:00:00: Tank 2 is emptying at 28.20 ft
   
    16:05:00: Balanced after 1 trials
   
    16:10:00: Balanced after 1 trials
   
    16:15:00: Balanced after 1 trials
   
    16:20:00: Balanced after 1 trials
   
    16:25:00: Balanced after 1 trials
   
    16:30:00: Balanced after 1 trials
   
    16:35:00: Balanced after 1 trials
   
    16:40:00: Balanced after 1 trials
   
    16:45:00: Balanced after 1 trials
   
    16:50:00: Balanced after 1 trials
   
    16:55:00: Balanced after 1 trials
   
    17:00:00: Balanced after 3 trials
   
    17:05:00: Balanced after 2 trials
   
    17:10:00: Balanced after 2 trials
   
    17:15:00: Balanced after 2 trials
   
    17:20:00: Balanced after 1 trials
   
    17:25:00: Balanced after 1 trials
   
    17:30:00: Balanced after 1 trials
   
    17:35:00: Balanced after 1 trials
   
    17:40:00: Balanced after 1 trials
   
    17:45:00: Balanced after 1 trials
   
    17:50:00: Balanced after 1 trials
   
    17:55:00: Balanced after 1 trials
   
    18:00:00: Balanced after 4 trials
    18:00:00: Tank 2 is filling at 26.29 ft
   
    18:05:00: Balanced after 2 trials
   
    18:10:00: Balanced after 2 trials
   
    18:15:00: Balanced after 2 trials
   
    18:20:00: Balanced after 2 trials
   
    18:25:00: Balanced after 2 trials
   
    18:30:00: Balanced after 2 trials
   
    18:35:00: Balanced after 2 trials
   
    18:40:00: Balanced after 2 trials
   
    18:45:00: Balanced after 2 trials
   
    18:50:00: Balanced after 2 trials
   
    18:55:00: Balanced after 2 trials
   
    19:00:00: Balanced after 3 trials
    19:00:00: Tank 2 is emptying at 26.62 ft
   
    19:05:00: Balanced after 1 trials
   
    19:10:00: Balanced after 1 trials
   
    19:15:00: Balanced after 1 trials
   
    19:20:00: Balanced after 1 trials
   
    19:25:00: Balanced after 1 trials
   
    19:30:00: Balanced after 1 trials
   
    19:35:00: Balanced after 1 trials
   
    19:40:00: Balanced after 1 trials
   
    19:45:00: Balanced after 1 trials
   
    19:50:00: Balanced after 1 trials
   
    19:55:00: Balanced after 1 trials
   
    20:00:00: Balanced after 3 trials
   
    20:05:00: Balanced after 1 trials
   
    20:10:00: Balanced after 1 trials
   
    20:15:00: Balanced after 1 trials
   
    20:20:00: Balanced after 1 trials
   
    20:25:00: Balanced after 1 trials
   
    20:30:00: Balanced after 1 trials
   
    20:35:00: Balanced after 1 trials
   
    20:40:00: Balanced after 1 trials
   
    20:45:00: Balanced after 1 trials
   
    20:50:00: Balanced after 1 trials
   
    20:52:23: Pump 335 changed by Tank 1 control
    20:52:23: Pipe 330 changed by Tank 1 control
    20:52:23: Balanced after 5 trials
    20:52:23: Tank 1 is filling at 17.10 ft
    20:52:23: Tank 3 is filling at 29.87 ft
    20:52:23: Pipe 330 changed from open to closed
    20:52:23: Pump 335 changed from closed to open
   
    20:55:00: Balanced after 1 trials
   
    21:00:00: Balanced after 3 trials
    21:00:00: Tank 2 is filling at 25.69 ft
   
    21:05:00: Balanced after 1 trials
   
    21:10:00: Balanced after 1 trials
   
    21:15:00: Balanced after 1 trials
   
    21:20:00: Balanced after 1 trials
   
    21:25:00: Balanced after 1 trials
   
    21:30:00: Balanced after 1 trials
   
    21:35:00: Balanced after 1 trials
   
    21:40:00: Balanced after 1 trials
   
    21:45:00: Balanced after 1 trials
   
    21:50:00: Balanced after 1 trials
   
    21:55:00: Balanced after 1 trials
   
    22:00:00: Balanced after 4 trials
    22:00:00: Tank 1 is emptying at 17.78 ft
    22:00:00: Tank 2 is emptying at 25.91 ft
   
    22:05:00: Balanced after 2 trials
   
    22:10:00: Balanced after 2 trials
   
    22:15:00: Balanced after 2 trials
   
    22:20:00: Balanced after 2 trials
   
    22:25:00: Balanced after 2 trials
   
    22:30:00: Balanced after 2 trials
   
    22:35:00: Balanced after 2 trials
   
    22:40:00: Balanced after 2 trials
   
    22:45:00: Balanced after 2 trials
   
    22:50:00: Balanced after 2 trials
   
    22:55:00: Balanced after 2 trials
   
    23:00:00: Balanced after 3 trials
   
    23:05:00: Balanced after 2 trials
   
    23:10:00: Balanced after 2 trials
   
    23:15:00: Balanced after 2 trials
   
    23:20:00: Balanced after 2 trials
   
    23:25:00: Balanced after 2 trials
   
    23:30:00: Balanced after 2 trials
   
    23:35:00: Balanced after 2 trials
   
    23:40:00: Balanced after 2 trials
   
    23:45:00: Balanced after 2 trials
   
    23:50:00: Balanced after 2 trials
   
    23:55:00: Balanced after 2 trials
   
    24:00:00: Balanced after 4 trials
   
   
  Node Results at 0:00:00 hrs:
  --------------------------------------------------------
                     Demand      Head  Pressure  Chemical
  Node                  gpm        ft       psi      mg/L
  --------------------------------------------------------
  10                   0.00    143.99     -1.30      0.00
  15                 652.65    121.78     38.90      0.00
  20                   0.00    158.00     12.57      0.00
  35                1530.42    145.24     57.52      0.00
  40                   0.00    145.00      5.68      0.00
  50                   0.00    140.00     10.18      0.00
  60                   0.00    208.99     90.55      0.00
  601                  0.00    302.30    130.99      0.00
  61                   0.00    302.30    130.99      0.00
  101                298.22    143.99     44.19      0.00
  103                209.12    143.97     43.75      0.00
  105                212.53    145.43     50.66      0.00
  107                 85.78    145.43     53.48      0.00
  109                363.30    143.98     53.59      0.00
  111                222.85    145.02     58.50      0.00
  113                 31.42    145.15     62.03      0.00
  115                 81.80    145.75     57.09      0.00
  117                184.80    148.90     58.63      0.00
  119                276.52    157.00     67.16      0.00
  120                  0.00    154.37     66.89      0.00
  121                 65.36    160.57     70.44      0.00
  123                  0.00    165.04     66.75      0.00
  125                 71.59    160.06     64.59      0.00
  127                 27.73    158.60     44.46      0.00
  129                  0.00    158.58     46.62      0.00
  131                 67.12    158.56     66.10      0.00
  139                  9.25    152.02     52.44      0.00
  141                 15.46    147.38     62.12      0.00
  143                  9.73    135.45     60.64      0.00
  145                 43.38    148.67     63.99      0.00
  147                 13.42    149.68     56.84      0.00
  149                 42.50    150.11     58.11      0.00
  151                226.83    154.41     52.39      0.00
  153                 69.35    154.51     38.27      0.00
  157                 81.31    154.55     61.29      0.00
  159                 64.87    151.19     62.91      0.00
  161                 24.81    148.91     62.79      0.00
  163                 14.79    148.45     62.16      0.00
  164                  0.00    148.45     62.16      0.00
  166                  4.08    148.45     65.19      0.00
  167                 22.86    146.59     65.68      0.00
  169                  0.00    146.59     65.68      0.00
  171                 61.76    145.53     64.79      0.00
  173                  0.00    145.51     64.78      0.00
  177                 91.33    145.23     59.46      0.00
  179                  0.00    145.22     59.46      0.00
  181                  0.00    145.25     59.47      0.00
  183                  0.00    145.22     58.16      0.00
  184                  0.00    143.79     55.37      0.00
  185                 40.27    144.37     55.62      0.00
  187                  0.00    144.93     57.38      0.00
  189                169.43    145.35     61.25      0.00
  191                128.58    145.04     52.02      0.00
  193                111.96    145.18     55.11      0.00
  195                  0.00    145.26     56.23      0.00
  197                 26.75    145.03     52.88      0.00
  199                187.33    140.21     61.62      0.00
  201                 70.04    139.47     60.39      0.00
  203               4391.18    139.31     59.50      0.00
  204                  0.00    144.73     53.61      0.00
  205                102.62    140.16     51.63      0.00
  206                  0.00    139.23     59.90      0.00
  207                108.94    139.45     56.53      0.00
  208                  0.00    138.99     53.29      0.00
  209                  1.37    138.56     60.90      0.00
  211                 13.61    138.42     56.94      0.00
  213                 21.89    138.33     56.91      0.00
  215                144.74    138.07     56.79      0.00
  217                 38.03    138.05     57.22      0.00
  219                 64.87    138.03     58.08      0.00
  225                 35.80    138.04     56.35      0.00
  229                100.76    138.24     55.35      0.00
  231                 25.87    138.23     57.73      0.00
  237                 24.51    138.40     53.90      0.00
  239                 70.04    138.40     54.34      0.00
  241                  0.00    138.40     54.34      0.00
  243                  6.81    138.40     53.90      0.00
  247                110.50    138.42     52.18      0.00
  249                  0.00    138.42     52.18      0.00
  251                 37.93    138.44     46.99      0.00
  253                 85.60    138.70     44.50      0.00
  255                 63.41    138.77     48.43      0.00
  257                  0.00    151.02     58.07      0.00
  259                  0.00    150.55     54.40      0.00
  261                  0.00    148.85     64.50      0.00
  263                  0.00    148.67     64.42      0.00
  265                  0.00    147.18     63.77      0.00
  267                  0.00    145.35     53.88      0.00
  269                  0.00    145.85     63.20      0.00
  271                  0.00    145.33     60.37      0.00
  273                  0.00    140.16     57.27      0.00
  275                  0.00    139.47     56.10      0.00
  River           -13172.27    220.00      0.00      0.00  Reservoir
  Lake                 0.00    167.00      0.00      0.00  Reservoir
  1                  244.71    145.00      5.68      0.00  Tank
  2                 -436.82    140.00     10.18      0.00  Tank
  3                 2004.61    158.00     12.57      0.00  Tank
   
   
  Link Results at 0:00:00 hrs:
  ----------------------------------------------
                       Flow  Velocity  Headloss
  Link                  gpm       fps   /1000ft
  ----------------------------------------------
  20               -2004.61      0.08      0.00
  40                -244.71      0.01      0.00
  50                 436.82      0.02      0.00
  60               13172.27      9.34      8.95
  101                  0.00      0.00      0.00
  103                146.85      0.23      0.02
  105               -445.07      1.26      0.57
  107                  7.19      0.02      0.00
  109                -62.27      0.10      0.00
  111               -425.57      1.21      0.52
  112                469.82      1.33      0.63
  113               -150.54      0.43      0.08
  114                108.56      0.69      0.30
  115                -78.60      0.50      0.16
  116                -73.40      0.21      0.02
  117                664.79      1.89      1.19
  119               -738.77      2.10      1.45
  120               1209.61      3.43      3.61
  121               1080.62      3.07      2.93
  122                378.75      2.42      3.03
  123               9992.41      4.54      1.78
  125              13172.27      5.98      2.98
  129               2735.76      1.94      0.56
  131               2432.72      1.73      0.45
  133              -2004.61      2.05      0.76
  135                400.39      0.28      0.02
  137                 67.12      0.11      0.00
  145                333.27      2.13      2.39
  147                324.03      2.07      2.27
  149               -662.38      4.23      8.52
  151               -652.65      4.17      8.29
  153                353.82      1.00      0.37
  155                397.20      1.13      0.46
  159               -410.62      1.16      0.49
  161               -453.12      2.89      4.22
  163               -162.10      0.46      0.09
  169                231.44      1.48      1.22
  171                517.86      1.47      0.75
  173               7988.41      3.63      1.18
  175               7907.10      3.59      1.16
  177               7842.22      3.56      1.14
  179               7550.30      3.43      1.06
  180                  4.08      0.01      0.00
  181                  4.08      0.01      0.00
  183               7306.08      3.32      1.00
  185                -22.86      0.15      0.02
  186                302.53      1.93      2.00
  187               6630.79      3.01      0.84
  189               4732.21      2.15      0.45
  191              -1836.81      1.30      0.27
  193              -1530.42      1.09      0.19
  195                434.10      1.23      0.54
  197                342.78      0.97      0.35
  199                 98.07      0.28      0.03
  201               -244.71      0.69      0.19
  202                536.80      3.43      5.77
  203                274.54      1.75      1.67
  204                536.80      1.52      0.80
  205                302.53      0.86      0.28
  207                176.47      0.50      0.10
  209                190.03      1.21      0.84
  211                652.43      1.85      1.15
  213                112.50      0.32      0.04
  215                 11.22      0.03      0.00
  217               -295.89      0.84      0.27
  219               -267.12      0.76      0.22
  221                267.12      1.70      1.58
  223                -54.81      0.16      0.01
  225                -28.06      0.08      0.00
  229               4732.21      3.36      1.33
  231               4413.31      3.13      1.17
  233               4391.18      3.11      1.34
  235                131.57      0.37      0.06
  237                455.31      1.29      0.59
  238                408.90      1.16      0.48
  239                 62.53      0.18      0.01
  240                408.90      1.16      0.48
  241                408.90      1.16      0.48
  243                407.54      0.65      0.12
  245                343.73      0.55      0.09
  247                283.43      0.45      0.06
  249                138.69      0.22      0.02
  251                 64.87      0.14      0.01
  257                 35.80      0.10      0.01
  261                 38.41      0.25      0.04
  263                 25.87      0.07      0.00
  269                 50.20      0.14      0.01
  271                 88.22      0.56      0.20
  273                -62.54      0.18      0.01
  275                -45.46      0.13      0.01
  277                  6.81      0.02      0.00
  281                -52.27      0.21      0.03
  283                -87.12      0.25      0.03
  285                 16.61      0.05      0.00
  287               -179.38      0.73      0.26
  289                436.82      1.78      1.33
  291                 85.60      0.35      0.06
  293                108.44      0.69      0.30
  295                -70.51      0.20      0.02
  297                507.75      3.24      5.21
  299                244.01      1.56      1.34
  301                244.01      1.56      1.34
  303                263.74      1.68      1.55
  305                157.04      0.45      0.08
  307                420.78      1.19      0.51
  309                225.35      1.44      1.16
  311               -214.13      0.61      0.15
  313                524.72      1.49      0.77
  315              -1964.52      1.39      0.30
  317                110.44      0.70      0.31
  319                 21.13      0.06      0.00
  321               7531.43      3.42      1.06
  323                -47.90      0.14      0.01
  325                127.71      0.82      0.40
  329              13172.27      5.98      3.02
  330                  0.00      0.00      0.00
  333                 -0.00      0.00      0.00
  10                   0.00      0.00      0.00  Pump
  335              13172.27      0.00    -93.32  Pump
   
   
  Node Results at 0:05:00 hrs:
  --------------------------------------------------------
                     Demand      Head  Pressure  Chemical
  Node                  gpm        ft       psi      mg/L
  --------------------------------------------------------
  10                   0.00    144.02     -1.29      0.00
  15                 652.65    121.82     38.92      0.00
  20                   0.00    158.06     12.59      0.00
  35                1530.42    145.27     57.53      0.00
  40                   0.00    145.03      5.69      0.00
  50                   0.00    139.85     10.12      0.00
  60                   0.00    208.99     90.56      0.00
  601                  0.00    302.32    131.00      0.00
  61                   0.00    302.32    131.00      0.00
  101                298.22    144.02     44.20      0.00
  103                209.12    143.99     43.76      0.00
  105                212.53    145.46     50.68      0.00
  107                 85.78    145.45     53.49      0.00
  109                363.30    144.01     53.60      0.00
  111                222.85    145.05     58.52      0.00
  113                 31.42    145.17     62.04      0.00
  115                 81.80    145.77     57.10      0.00
  117                184.80    148.93     58.64      0.00
  119                276.52    157.05     67.18      0.00
  120                  0.00    154.41     66.91      0.00
  121                 65.36    160.62     70.46      0.00
  123                  0.00    165.08     66.77      0.00
  125                 71.59    160.10     64.61      0.00
  127                 27.73    158.66     44.48      0.00
  129                  0.00    158.64     46.64      0.00
  131                 67.12    158.62     66.13      0.00
  139                  9.25    152.07     52.46      0.00
  141                 15.46    147.42     62.15      0.00
  143                  9.73    135.50     60.66      0.00
  145                 43.38    148.72     64.01      0.00
  147                 13.42    149.73     56.86      0.00
  149                 42.50    150.16     58.13      0.00
  151                226.83    154.46     52.41      0.00
  153                 69.35    154.56     38.29      0.00
  157                 81.31    154.59     61.31      0.00
  159                 64.87    151.22     62.92      0.00
  161                 24.81    148.93     62.80      0.00
  163                 14.79    148.48     62.17      0.00
  164                  0.00    148.48     62.17      0.00
  166                  4.08    148.48     65.20      0.00
  167                 22.86    146.61     65.69      0.00
  169                  0.00    146.62     65.70      0.00
  171                 61.76    145.55     64.80      0.00
  173                  0.00    145.53     64.79      0.00
  177                 91.33    145.26     59.47      0.00
  179                  0.00    145.25     59.47      0.00
  181                  0.00    145.27     59.48      0.00
  183                  0.00    145.24     58.17      0.00
  184                  0.00    143.81     55.38      0.00
  185                 40.27    144.39     55.63      0.00
  187                  0.00    144.95     57.39      0.00
  189                169.43    145.38     61.26      0.00
  191                128.58    145.07     52.03      0.00
  193                111.96    145.21     55.12      0.00
  195                  0.00    145.29     56.24      0.00
  197                 26.75    145.06     52.89      0.00
  199                187.33    140.21     61.62      0.00
  201                 70.04    139.47     60.39      0.00
  203               4391.18    139.31     59.50      0.00
  204                  0.00    144.75     53.62      0.00
  205                102.62    140.16     51.63      0.00
  206                  0.00    139.22     59.89      0.00
  207                108.94    139.45     56.52      0.00
  208                  0.00    138.96     53.28      0.00
  209                  1.37    138.51     60.88      0.00
  211                 13.61    138.36     56.92      0.00
  213                 21.89    138.27     56.88      0.00
  215                144.74    138.02     56.77      0.00
  217                 38.03    137.99     57.19      0.00
  219                 64.87    137.97     58.05      0.00
  225                 35.80    137.98     56.32      0.00
  229                100.76    138.17     55.32      0.00
  231                 25.87    138.17     57.70      0.00
  237                 24.51    138.33     53.87      0.00
  239                 70.04    138.34     54.31      0.00
  241                  0.00    138.34     54.31      0.00
  243                  6.81    138.34     53.87      0.00
  247                110.50    138.35     52.15      0.00
  249                  0.00    138.35     52.15      0.00
  251                 37.93    138.37     46.96      0.00
  253                 85.60    138.61     44.46      0.00
  255                 63.41    138.68     48.39      0.00
  257                  0.00    151.05     58.08      0.00
  259                  0.00    150.58     54.41      0.00
  261                  0.00    148.88     64.51      0.00
  263                  0.00    148.70     64.43      0.00
  265                  0.00    147.21     63.78      0.00
  267                  0.00    145.38     53.89      0.00
  269                  0.00    145.87     63.21      0.00
  271                  0.00    145.35     60.38      0.00
  273                  0.00    140.16     57.27      0.00
  275                  0.00    139.47     56.10      0.00
  River           -13170.78    220.00      0.00      0.00  Reservoir
  Lake                 0.00    167.00      0.00      0.00  Reservoir
  1                  241.60    145.03      5.69      0.00  Tank
  2                 -426.09    139.85     10.12      0.00  Tank
  3                 1995.48    158.06     12.59      0.00  Tank
   
   
  Link Results at 0:05:00 hrs:
  ----------------------------------------------
                       Flow  Velocity  Headloss
  Link                  gpm       fps   /1000ft
  ----------------------------------------------
  20               -1995.48      0.08      0.00
  40                -241.60      0.01      0.00
  50                 426.09      0.02      0.00
  60               13170.78      9.34      8.94
  101                  0.00      0.00      0.00
  103                147.09      0.23      0.02
  105               -445.31      1.26      0.57
  107                  7.33      0.02      0.00
  109                -62.04      0.10      0.00
  111               -425.34      1.21      0.52
  112                470.37      1.33      0.63
  113               -150.36      0.43      0.08
  114                108.74      0.69      0.30
  115                -78.46      0.50      0.16
  116                -73.04      0.21      0.02
  117                665.16      1.89      1.19
  119               -739.36      2.10      1.45
  120               1210.33      3.43      3.61
  121               1081.27      3.07      2.93
  122                379.00      2.42      3.03
  123               9999.51      4.54      1.79
  125              13170.78      5.98      2.98
  129               2726.91      1.93      0.56
  131               2423.76      1.72      0.45
  133              -1995.48      2.04      0.76
  135                400.55      0.28      0.02
  137                 67.12      0.11      0.00
  145                333.43      2.13      2.39
  147                324.19      2.07      2.27
  149               -662.38      4.23      8.52
  151               -652.65      4.17      8.29
  153                353.66      1.00      0.37
  155                397.04      1.13      0.46
  159               -410.46      1.16      0.49
  161               -452.96      2.89      4.21
  163               -162.21      0.46      0.09
  169                231.56      1.48      1.22
  171                517.59      1.47      0.75
  173               7995.07      3.63      1.18
  175               7913.76      3.59      1.16
  177               7848.89      3.56      1.14
  179               7556.84      3.43      1.06
  180                  4.08      0.01      0.00
  181                  4.08      0.01      0.00
  183               7312.54      3.32      1.00
  185                -22.86      0.15      0.02
  186                303.34      1.94      2.01
  187               6637.14      3.01      0.84
  189               4741.64      2.15      0.45
  191              -1833.74      1.30      0.27
  193              -1530.42      1.09      0.19
  195                431.16      1.22      0.53
  197                339.83      0.96      0.34
  199                 98.23      0.28      0.03
  201               -241.60      0.69      0.18
  202                538.11      3.43      5.80
  203                275.04      1.76      1.67
  204                538.11      1.53      0.80
  205                303.34      0.86      0.28
  207                176.81      0.50      0.10
  209                190.18      1.21      0.84
  211                652.54      1.85      1.15
  213                113.16      0.32      0.04
  215                 11.72      0.03      0.00
  217               -295.95      0.84      0.27
  219               -267.24      0.76      0.22
  221                267.24      1.71      1.59
  223                -54.21      0.15      0.01
  225                -27.45      0.08      0.00
  229               4741.64      3.36      1.33
  231               4421.23      3.14      1.17
  233               4391.18      3.11      1.34
  235                133.08      0.38      0.06
  237                457.93      1.30      0.60
  238                419.64      1.19      0.51
  239                 70.65      0.20      0.02
  240                419.64      1.19      0.51
  241                419.64      1.19      0.51
  243                418.27      0.67      0.12
  245                344.68      0.55      0.09
  247                283.43      0.45      0.06
  249                138.69      0.22      0.02
  251                 64.87      0.14      0.01
  257                 35.80      0.10      0.01
  261                 39.36      0.25      0.05
  263                 25.87      0.07      0.00
  269                 59.98      0.17      0.01
  271                 87.27      0.56      0.20
  273                -51.80      0.15      0.01
  275                -41.44      0.12      0.01
  277                  6.81      0.02      0.00
  281                -48.25      0.20      0.02
  283                -80.40      0.23      0.02
  285                 13.84      0.04      0.00
  287               -172.58      0.71      0.24
  289                426.09      1.74      1.27
  291                 85.60      0.35      0.06
  293                104.49      0.67      0.28
  295                -66.56      0.19      0.02
  297                508.06      3.24      5.21
  299                244.16      1.56      1.34
  301                244.16      1.56      1.34
  303                263.90      1.68      1.55
  305                157.11      0.45      0.08
  307                421.00      1.19      0.51
  309                225.43      1.44      1.16
  311               -213.70      0.61      0.15
  313                524.70      1.49      0.77
  315              -1961.58      1.39      0.30
  317                110.64      0.71      0.31
  319                 22.44      0.06      0.00
  321               7537.97      3.42      1.06
  323                -39.99      0.11      0.01
  325                127.84      0.82      0.40
  329              13170.78      5.98      3.02
  330                  0.00      0.00      0.00
  333                 -0.00      0.00      0.00
  10                   0.00      0.00      0.00  Pump
  335              13170.78      0.00    -93.33  Pump
   
   
  Node Results at 0:10:00 hrs:
  --------------------------------------------------------
                     Demand      Head  Pressure  Chemical
  Node                  gpm        ft       psi      mg/L
  --------------------------------------------------------
  10                   0.00    144.04     -1.28      0.00
  15                 652.65    121.87     38.94      0.00
  20                   0.00    158.13     12.62      0.00
  35                1530.42    145.29     57.54      0.00
  40                   0.00    145.06      5.70      0.00
  50                   0.00    139.71     10.06      0.00
  60                   0.00    208.99     90.56      0.00
  601                  0.00    302.34    131.00      0.00
  61                   0.00    302.34    131.00      0.00
  101                298.22    144.04     44.22      0.00
  103                209.12    144.02     43.77      0.00
  105                212.53    145.48     50.69      0.00
  107                 85.78    145.48     53.51      0.00
  109                363.30    144.03     53.61      0.00
  111                222.85    145.07     58.53      0.00
  113                 31.42    145.20     62.05      0.00
  115                 81.80    145.80     57.11      0.00
  117                184.80    148.96     58.65      0.00
  119                276.52    157.09     67.20      0.00
  120                  0.00    154.45     66.92      0.00
  121                 65.36    160.67     70.48      0.00
  123                  0.00    165.13     66.78      0.00
  125                 71.59    160.15     64.63      0.00
  127                 27.73    158.72     44.51      0.00
  129                  0.00    158.70     46.67      0.00
  131                 67.12    158.67     66.15      0.00
  139                  9.25    152.13     52.48      0.00
  141                 15.46    147.47     62.17      0.00
  143                  9.73    135.55     60.68      0.00
  145                 43.38    148.77     64.03      0.00
  147                 13.42    149.78     56.88      0.00
  149                 42.50    150.20     58.15      0.00
  151                226.83    154.50     52.43      0.00
  153                 69.35    154.60     38.30      0.00
  157                 81.31    154.63     61.32      0.00
  159                 64.87    151.25     62.94      0.00
  161                 24.81    148.96     62.81      0.00
  163                 14.79    148.50     62.18      0.00
  164                  0.00    148.50     62.18      0.00
  166                  4.08    148.50     65.21      0.00
  167                 22.86    146.64     65.71      0.00
  169                  0.00    146.64     65.71      0.00
  171                 61.76    145.58     64.81      0.00
  173                  0.00    145.55     64.80      0.00
  177                 91.33    145.28     59.48      0.00
  179                  0.00    145.27     59.48      0.00
  181                  0.00    145.30     59.49      0.00
  183                  0.00    145.26     58.18      0.00
  184                  0.00    143.82     55.39      0.00
  185                 40.27    144.41     55.64      0.00
  187                  0.00    144.98     57.40      0.00
  189                169.43    145.40     61.27      0.00
  191                128.58    145.09     52.04      0.00
  193                111.96    145.23     55.13      0.00
  195                  0.00    145.31     56.25      0.00
  197                 26.75    145.08     52.90      0.00
  199                187.33    140.21     61.62      0.00
  201                 70.04    139.47     60.39      0.00
  203               4391.18    139.31     59.50      0.00
  204                  0.00    144.78     53.63      0.00
  205                102.62    140.16     51.63      0.00
  206                  0.00    139.20     59.88      0.00
  207                108.94    139.44     56.52      0.00
  208                  0.00    138.93     53.27      0.00
  209                  1.37    138.46     60.86      0.00
  211                 13.61    138.30     56.89      0.00
  213                 21.89    138.22     56.86      0.00
  215                144.74    137.96     56.74      0.00
  217                 38.03    137.93     57.17      0.00
  219                 64.87    137.92     58.03      0.00
  225                 35.80    137.92     56.30      0.00
  229                100.76    138.11     55.29      0.00
  231                 25.87    138.11     57.67      0.00
  237                 24.51    138.27     53.84      0.00
  239                 70.04    138.27     54.28      0.00
  241                  0.00    138.27     54.28      0.00
  243                  6.81    138.27     53.85      0.00
  247                110.50    138.28     52.12      0.00
  249                  0.00    138.28     52.12      0.00
  251                 37.93    138.30     46.93      0.00
  253                 85.60    138.51     44.42      0.00
  255                 63.41    138.59     48.35      0.00
  257                  0.00    151.08     58.10      0.00
  259                  0.00    150.61     54.43      0.00
  261                  0.00    148.91     64.52      0.00
  263                  0.00    148.73     64.45      0.00
  265                  0.00    147.23     63.80      0.00
  267                  0.00    145.40     53.90      0.00
  269                  0.00    145.90     63.22      0.00
  271                  0.00    145.37     60.39      0.00
  273                  0.00    140.17     57.27      0.00
  275                  0.00    139.47     56.10      0.00
  River           -13169.28    220.00      0.00      0.00  Reservoir
  Lake                 0.00    167.00      0.00      0.00  Reservoir
  1                  238.67    145.06      5.70      0.00  Tank
  2                 -415.58    139.71     10.06      0.00  Tank
  3                 1986.41    158.13     12.62      0.00  Tank
   
   
  Link Results at 0:10:00 hrs:
  ----------------------------------------------
                       Flow  Velocity  Headloss
  Link                  gpm       fps   /1000ft
  ----------------------------------------------
  20               -1986.41      0.08      0.00
  40                -238.67      0.01      0.00
  50                 415.58      0.02      0.00
  60               13169.28      9.34      8.94
  101                  0.00      0.00      0.00
  103                147.32      0.24      0.02
  105               -445.54      1.26      0.57
  107                  7.46      0.02      0.00
  109                -61.81      0.10      0.00
  111               -425.10      1.21      0.52
  112                470.91      1.34      0.63
  113               -150.18      0.43      0.08
  114                108.92      0.70      0.30
  115                -78.32      0.50      0.16
  116                -72.68      0.21      0.02
  117                665.54      1.89      1.19
  119               -739.95      2.10      1.45
  120               1211.04      3.44      3.61
  121               1081.93      3.07      2.93
  122                379.25      2.42      3.03
  123              10006.56      4.54      1.79
  125              13169.28      5.98      2.98
  129               2718.12      1.93      0.55
  131               2414.85      1.71      0.44
  133              -1986.41      2.03      0.75
  135                400.71      0.28      0.02
  137                 67.12      0.11      0.00
  145                333.59      2.13      2.39
  147                324.35      2.07      2.27
  149               -662.38      4.23      8.52
  151               -652.65      4.17      8.29
  153                353.50      1.00      0.37
  155                396.88      1.13      0.46
  159               -410.30      1.16      0.49
  161               -452.80      2.89      4.21
  163               -162.33      0.46      0.09
  169                231.67      1.48      1.22
  171                517.31      1.47      0.75
  173               8001.68      3.63      1.18
  175               7920.37      3.59      1.16
  177               7855.50      3.57      1.14
  179               7563.33      3.43      1.07
  180                  4.08      0.01      0.00
  181                  4.08      0.01      0.00
  183               7318.95      3.32      1.00
  185                -22.86      0.15      0.02
  186                304.13      1.94      2.01
  187               6643.43      3.02      0.84
  189               4750.86      2.16      0.45
  191              -1830.81      1.30      0.27
  193              -1530.42      1.09      0.19
  195                428.37      1.22      0.53
  197                337.04      0.96      0.34
  199                 98.37      0.28      0.03
  201               -238.67      0.68      0.18
  202                539.39      3.44      5.82
  203                275.53      1.76      1.68
  204                539.39      1.53      0.81
  205                304.13      0.86      0.28
  207                177.16      0.50      0.10
  209                190.32      1.21      0.85
  211                652.66      1.85      1.15
  213                113.81      0.32      0.05
  215                 12.23      0.03      0.00
  217               -296.01      0.84      0.27
  219               -267.37      0.76      0.22
  221                267.37      1.71      1.59
  223                -53.61      0.15      0.01
  225                -26.86      0.08      0.00
  229               4750.86      3.37      1.34
  231               4428.91      3.14      1.17
  233               4391.18      3.11      1.34
  235                134.62      0.38      0.06
  237                460.58      1.31      0.60
  238                430.14      1.22      0.53
  239                 78.51      0.22      0.02
  240                430.14      1.22      0.53
  241                430.14      1.22      0.53
  243                428.78      0.68      0.13
  245                345.73      0.55      0.09
  247                283.43      0.45      0.06
  249                138.69      0.22      0.02
  251                 64.87      0.14      0.01
  257                 35.80      0.10      0.01
  261                 40.41      0.26      0.05
  263                 25.87      0.07      0.00
  269                 69.44      0.20      0.02
  271                 86.23      0.55      0.20
  273                -41.30      0.12      0.01
  275                -37.50      0.11      0.01
  277                  6.81      0.02      0.00
  281                -44.32      0.18      0.02
  283                -73.83      0.21      0.02
  285                 11.13      0.03      0.00
  287               -165.94      0.68      0.22
  289                415.58      1.70      1.21
  291                 85.60      0.35      0.06
  293                100.63      0.64      0.26
  295                -62.70      0.18      0.02
  297                508.36      3.24      5.22
  299                244.31      1.56      1.34
  301                244.31      1.56      1.34
  303                264.06      1.69      1.55
  305                157.17      0.45      0.08
  307                421.23      1.19      0.51
  309                225.50      1.44      1.16
  311               -213.27      0.61      0.14
  313                524.68      1.49      0.77
  315              -1958.79      1.39      0.30
  317                110.81      0.71      0.31
  319                 23.80      0.07      0.00
  321               7544.45      3.42      1.06
  323                -32.31      0.09      0.00
  325                127.98      0.82      0.41
  329              13169.28      5.98      3.02
  330                  0.00      0.00      0.00
  333                 -0.00      0.00      0.00
  10                   0.00      0.00      0.00  Pump
  335              13169.28      0.00    -93.34  Pump
   
   
  Node Results at 0:15:00 hrs:
  --------------------------------------------------------
                     Demand      Head  Pressure  Chemical
  Node                  gpm        ft       psi      mg/L
  --------------------------------------------------------
  10                   0.00    144.07     -1.27      0.00
  15                 652.65    121.92     38.96      0.00
  20                   0.00    158.19     12.65      0.00
  35                1530.42    145.31     57.55      0.00
  40                   0.00    145.09      5.71      0.00
  50                   0.00    139.56      9.99      0.00
  60                   0.00    209.00     90.56      0.00
  601                  0.00    302.35    131.01      0.00
  61                   0.00    302.35    131.01      0.00
  101                298.22    144.07     44.23      0.00
  103                209.12    144.05     43.78      0.00
  105                212.53    145.51     50.70      0.00
  107                 85.78    145.51     53.52      0.00
  109                363.30    144.06     53.62      0.00
  111                222.85    145.10     58.54      0.00
  113                 31.42    145.22     62.06      0.00
  115                 81.80    145.83     57.12      0.00
  117                184.80    149.00     58.67      0.00
  119                276.52    157.13     67.22      0.00
  120                  0.00    154.49     66.94      0.00
  121                 65.36    160.71     70.50      0.00
  123                  0.00    165.17     66.80      0.00
  125                 71.59    160.20     64.65      0.00
  127                 27.73    158.77     44.53      0.00
  129                  0.00    158.76     46.69      0.00
  131                 67.12    158.73     66.18      0.00
  139                  9.25    152.18     52.51      0.00
  141                 15.46    147.52     62.19      0.00
  143                  9.73    135.59     60.70      0.00
  145                 43.38    148.81     64.05      0.00
  147                 13.42    149.82     56.90      0.00
  149                 42.50    150.25     58.17      0.00
  151                226.83    154.54     52.45      0.00
  153                 69.35    154.64     38.32      0.00
  157                 81.31    154.66     61.34      0.00
  159                 64.87    151.28     62.95      0.00
  161                 24.81    148.99     62.82      0.00
  163                 14.79    148.53     62.19      0.00
  164                  0.00    148.53     62.19      0.00
  166                  4.08    148.53     65.23      0.00
  167                 22.86    146.66     65.72      0.00
  169                  0.00    146.66     65.72      0.00
  171                 61.76    145.60     64.82      0.00
  173                  0.00    145.58     64.81      0.00
  177                 91.33    145.30     59.49      0.00
  179                  0.00    145.29     59.49      0.00
  181                  0.00    145.32     59.50      0.00
  183                  0.00    145.29     58.19      0.00
  184                  0.00    143.84     55.39      0.00
  185                 40.27    144.43     55.65      0.00
  187                  0.00    145.00     57.41      0.00
  189                169.43    145.43     61.28      0.00
  191                128.58    145.12     52.05      0.00
  193                111.96    145.26     55.14      0.00
  195                  0.00    145.34     56.26      0.00
  197                 26.75    145.11     52.91      0.00
  199                187.33    140.21     61.62      0.00
  201                 70.04    139.47     60.39      0.00
  203               4391.18    139.31     59.50      0.00
  204                  0.00    144.80     53.64      0.00
  205                102.62    140.17     51.64      0.00
  206                  0.00    139.19     59.88      0.00
  207                108.94    139.44     56.52      0.00
  208                  0.00    138.90     53.25      0.00
  209                  1.37    138.41     60.84      0.00
  211                 13.61    138.25     56.87      0.00
  213                 21.89    138.16     56.83      0.00
  215                144.74    137.90     56.72      0.00
  217                 38.03    137.87     57.14      0.00
  219                 64.87    137.86     58.00      0.00
  225                 35.80    137.87     56.27      0.00
  229                100.76    138.05     55.27      0.00
  231                 25.87    138.04     57.65      0.00
  237                 24.51    138.20     53.82      0.00
  239                 70.04    138.20     54.25      0.00
  241                  0.00    138.20     54.25      0.00
  243                  6.81    138.20     53.82      0.00
  247                110.50    138.21     52.09      0.00
  249                  0.00    138.21     52.09      0.00
  251                 37.93    138.23     46.90      0.00
  253                 85.60    138.42     44.38      0.00
  255                 63.41    138.49     48.31      0.00
  257                  0.00    151.12     58.11      0.00
  259                  0.00    150.65     54.44      0.00
  261                  0.00    148.94     64.54      0.00
  263                  0.00    148.76     64.46      0.00
  265                  0.00    147.26     63.81      0.00
  267                  0.00    145.43     53.91      0.00
  269                  0.00    145.92     63.23      0.00
  271                  0.00    145.40     60.40      0.00
  273                  0.00    140.17     57.27      0.00
  275                  0.00    139.47     56.10      0.00
  River           -13167.79    220.00      0.00      0.00  Reservoir
  Lake                 0.00    167.00      0.00      0.00  Reservoir
  1                  235.91    145.09      5.71      0.00  Tank
  2                 -405.30    139.56      9.99      0.00  Tank
  3                 1977.41    158.19     12.65      0.00  Tank
   
   
  Link Results at 0:15:00 hrs:
  ----------------------------------------------
                       Flow  Velocity  Headloss
  Link                  gpm       fps   /1000ft
  ----------------------------------------------
  20               -1977.41      0.08      0.00
  40                -235.91      0.01      0.00
  50                 405.30      0.02      0.00
  60               13167.79      9.34      8.94
  101                  0.00      0.00      0.00
  103                147.55      0.24      0.02
  105               -445.77      1.26      0.57
  107                  7.60      0.02      0.00
  109                -61.57      0.10      0.00
  111               -424.87      1.21      0.52
  112                471.45      1.34      0.63
  113               -150.00      0.43      0.08
  114                109.10      0.70      0.30
  115                -78.18      0.50      0.16
  116                -72.32      0.21      0.02
  117                665.91      1.89      1.19
  119               -740.53      2.10      1.45
  120               1211.75      3.44      3.62
  121               1082.58      3.07      2.94
  122                379.50      2.42      3.04
  123              10013.56      4.55      1.79
  125              13167.79      5.98      2.98
  129               2709.38      1.92      0.55
  131               2406.00      1.71      0.44
  133              -1977.41      2.02      0.74
  135                400.87      0.28      0.02
  137                 67.12      0.11      0.00
  145                333.75      2.13      2.39
  147                324.51      2.07      2.27
  149               -662.38      4.23      8.52
  151               -652.65      4.17      8.29
  153                353.34      1.00      0.37
  155                396.72      1.13      0.46
  159               -410.15      1.16      0.49
  161               -452.65      2.89      4.21
  163               -162.44      0.46      0.09
  169                231.79      1.48      1.22
  171                517.04      1.47      0.75
  173               8008.25      3.63      1.18
  175               7926.94      3.60      1.16
  177               7862.06      3.57      1.14
  179               7569.77      3.44      1.07
  180                  4.08      0.01      0.00
  181                  4.08      0.01      0.00
  183               7325.32      3.32      1.00
  185                -22.86      0.15      0.02
  186                304.91      1.95      2.02
  187               6649.67      3.02      0.84
  189               4759.88      2.16      0.45
  191              -1828.03      1.30      0.26
  193              -1530.42      1.09      0.19
  195                425.72      1.21      0.52
  197                334.39      0.95      0.33
  199                 98.49      0.28      0.03
  201               -235.91      0.67      0.17
  202                540.65      3.45      5.85
  203                276.01      1.76      1.68
  204                540.65      1.53      0.81
  205                304.91      0.86      0.28
  207                177.52      0.50      0.10
  209                190.45      1.22      0.85
  211                652.79      1.85      1.15
  213                114.46      0.32      0.05
  215                 12.74      0.04      0.00
  217               -296.06      0.84      0.27
  219               -267.49      0.76      0.22
  221                267.49      1.71      1.59
  223                -53.01      0.15      0.01
  225                -26.26      0.07      0.00
  229               4759.88      3.38      1.34
  231               4436.37      3.15      1.18
  233               4391.18      3.11      1.34
  235                136.18      0.39      0.06
  237                463.24      1.31      0.61
  238                440.42      1.25      0.56
  239                 86.13      0.24      0.03
  240                440.42      1.25      0.56
  241                440.42      1.25      0.56
  243                439.06      0.70      0.14
  245                346.85      0.55      0.09
  247                283.43      0.45      0.06
  249                138.69      0.22      0.02
  251                 64.87      0.14      0.01
  257                 35.80      0.10      0.01
  261                 41.53      0.27      0.05
  263                 25.87      0.07      0.00
  269                 78.60      0.22      0.02
  271                 85.10      0.54      0.19
  273                -31.02      0.09      0.00
  275                -33.66      0.10      0.00
  277                  6.81      0.02      0.00
  281                -40.47      0.17      0.02
  283                -67.40      0.19      0.02
  285                  8.48      0.02      0.00
  287               -159.44      0.65      0.21
  289                405.30      1.66      1.16
  291                 85.60      0.35      0.06
  293                 96.85      0.62      0.24
  295                -58.92      0.17      0.01
  297                508.67      3.25      5.22
  299                244.45      1.56      1.34
  301                244.45      1.56      1.34
  303                264.21      1.69      1.55
  305                157.24      0.45      0.08
  307                421.45      1.20      0.51
  309                225.58      1.44      1.16
  311               -212.84      0.60      0.14
  313                524.67      1.49      0.77
  315              -1956.14      1.39      0.30
  317                110.97      0.71      0.31
  319                 25.20      0.07      0.00
  321               7550.89      3.43      1.06
  323                -24.85      0.07      0.00
  325                128.11      0.82      0.41
  329              13167.79      5.98      3.01
  330                  0.00      0.00      0.00
  333                 -0.00      0.00      0.00
  10                   0.00      0.00      0.00  Pump
  335              13167.79      0.00    -93.36  Pump
   
   
  Node Results at 0:20:00 hrs:
  --------------------------------------------------------
                     Demand      Head  Pressure  Chemical
  Node                  gpm        ft       psi      mg/L
  --------------------------------------------------------
  10                   0.00    144.10     -1.26      0.00
  15                 652.65    121.97     38.98      0.00
  20                   0.00    158.25     12.67      0.00
  35                1530.42    145.34     57.56      0.00
  40                   0.00    145.11      5.73      0.00
  50                   0.00    139.43      9.93      0.00
  60                   0.00    209.00     90.56      0.00
  601                  0.00    302.37    131.02      0.00
  61                   0.00    302.37    131.02      0.00
  101                298.22    144.10     44.24      0.00
  103                209.12    144.07     43.79      0.00
  105                212.53    145.54     50.71      0.00
  107                 85.78    145.54     53.53      0.00
  109                363.30    144.09     53.64      0.00
  111                222.85    145.12     58.55      0.00
  113                 31.42    145.25     62.07      0.00
  115                 81.80    145.86     57.13      0.00
  117                184.80    149.03     58.68      0.00
  119                276.52    157.17     67.23      0.00
  120                  0.00    154.52     66.96      0.00
  121                 65.36    160.76     70.52      0.00
  123                  0.00    165.22     66.82      0.00
  125                 71.59    160.25     64.67      0.00
  127                 27.73    158.83     44.56      0.00
  129                  0.00    158.82     46.72      0.00
  131                 67.12    158.79     66.20      0.00
  139                  9.25    152.23     52.53      0.00
  141                 15.46    147.57     62.21      0.00
  143                  9.73    135.64     60.72      0.00
  145                 43.38    148.86     64.07      0.00
  147                 13.42    149.87     56.92      0.00
  149                 42.50    150.30     58.19      0.00
  151                226.83    154.58     52.47      0.00
  153                 69.35    154.69     38.34      0.00
  157                 81.31    154.70     61.36      0.00
  159                 64.87    151.31     62.96      0.00
  161                 24.81    149.02     62.84      0.00
  163                 14.79    148.56     62.20      0.00
  164                  0.00    148.56     62.20      0.00
  166                  4.08    148.56     65.24      0.00
  167                 22.86    146.69     65.73      0.00
  169                  0.00    146.69     65.73      0.00
  171                 61.76    145.62     64.83      0.00
  173                  0.00    145.60     64.82      0.00
  177                 91.33    145.33     59.50      0.00
  179                  0.00    145.32     59.50      0.00
  181                  0.00    145.34     59.51      0.00
  183                  0.00    145.31     58.20      0.00
  184                  0.00    143.86     55.40      0.00
  185                 40.27    144.45     55.66      0.00
  187                  0.00    145.03     57.42      0.00
  189                169.43    145.45     61.29      0.00
  191                128.58    145.14     52.06      0.00
  193                111.96    145.28     55.15      0.00
  195                  0.00    145.36     56.27      0.00
  197                 26.75    145.13     52.92      0.00
  199                187.33    140.22     61.62      0.00
  201                 70.04    139.48     60.39      0.00
  203               4391.18    139.31     59.50      0.00
  204                  0.00    144.82     53.65      0.00
  205                102.62    140.17     51.64      0.00
  206                  0.00    139.17     59.87      0.00
  207                108.94    139.43     56.52      0.00
  208                  0.00    138.88     53.24      0.00
  209                  1.37    138.36     60.82      0.00
  211                 13.61    138.19     56.85      0.00
  213                 21.89    138.10     56.81      0.00
  215                144.74    137.84     56.70      0.00
  217                 38.03    137.82     57.12      0.00
  219                 64.87    137.80     57.98      0.00
  225                 35.80    137.81     56.25      0.00
  229                100.76    137.99     55.24      0.00
  231                 25.87    137.98     57.62      0.00
  237                 24.51    138.13     53.79      0.00
  239                 70.04    138.13     54.22      0.00
  241                  0.00    138.13     54.22      0.00
  243                  6.81    138.13     53.79      0.00
  247                110.50    138.14     52.06      0.00
  249                  0.00    138.14     52.06      0.00
  251                 37.93    138.16     46.86      0.00
  253                 85.60    138.33     44.34      0.00
  255                 63.41    138.41     48.27      0.00
  257                  0.00    151.15     58.13      0.00
  259                  0.00    150.68     54.46      0.00
  261                  0.00    148.97     64.55      0.00
  263                  0.00    148.80     64.47      0.00
  265                  0.00    147.28     63.82      0.00
  267                  0.00    145.45     53.92      0.00
  269                  0.00    145.95     63.24      0.00
  271                  0.00    145.42     60.41      0.00
  273                  0.00    140.17     57.27      0.00
  275                  0.00    139.48     56.10      0.00
  River           -13166.31    220.00      0.00      0.00  Reservoir
  Lake                 0.00    167.00      0.00      0.00  Reservoir
  1                  233.30    145.11      5.73      0.00  Tank
  2                 -395.24    139.43      9.93      0.00  Tank
  3                 1968.46    158.25     12.67      0.00  Tank
   
   
  Link Results at 0:20:00 hrs:
  ----------------------------------------------
                       Flow  Velocity  Headloss
  Link                  gpm       fps   /1000ft
  ----------------------------------------------
  20               -1968.46      0.08      0.00
  40                -233.30      0.01      0.00
  50                 395.24      0.02      0.00
  60               13166.31      9.34      8.94
  101                  0.00      0.00      0.00
  103                147.78      0.24      0.02
  105               -446.00      1.27      0.57
  107                  7.74      0.02      0.00
  109                -61.34      0.10      0.00
  111               -424.64      1.20      0.52
  112                471.99      1.34      0.63
  113               -149.83      0.43      0.08
  114                109.28      0.70      0.30
  115                -78.04      0.50      0.16
  116                -71.97      0.20      0.02
  117                666.27      1.89      1.19
  119               -741.11      2.10      1.46
  120               1212.45      3.44      3.62
  121               1083.22      3.07      2.94
  122                379.74      2.42      3.04
  123              10020.51      4.55      1.79
  125              13166.31      5.98      2.97
  129               2700.70      1.92      0.55
  131               2397.21      1.70      0.44
  133              -1968.46      2.01      0.74
  135                401.03      0.28      0.02
  137                 67.12      0.11      0.00
  145                333.91      2.13      2.40
  147                324.66      2.07      2.27
  149               -662.38      4.23      8.52
  151               -652.65      4.17      8.29
  153                353.19      1.00      0.37
  155                396.57      1.12      0.46
  159               -409.99      1.16      0.49
  161               -452.49      2.89      4.21
  163               -162.55      0.46      0.09
  169                231.90      1.48      1.22
  171                516.77      1.47      0.75
  173               8014.76      3.64      1.19
  175               7933.45      3.60      1.16
  177               7868.58      3.57      1.15
  179               7576.16      3.44      1.07
  180                  4.08      0.01      0.00
  181                  4.08      0.01      0.00
  183               7331.63      3.33      1.01
  185                -22.86      0.15      0.02
  186                305.68      1.95      2.03
  187               6655.86      3.02      0.84
  189               4768.71      2.16      0.45
  191              -1825.38      1.29      0.26
  193              -1530.42      1.09      0.19
  195                423.21      1.20      0.52
  197                331.88      0.94      0.33
  199                 98.58      0.28      0.03
  201               -233.30      0.66      0.17
  202                541.89      3.46      5.87
  203                276.48      1.76      1.69
  204                541.89      1.54      0.81
  205                305.68      0.87      0.28
  207                177.90      0.50      0.10
  209                190.58      1.22      0.85
  211                652.92      1.85      1.15
  213                115.10      0.33      0.05
  215                 13.25      0.04      0.00
  217               -296.10      0.84      0.27
  219               -267.62      0.76      0.22
  221                267.62      1.71      1.59
  223                -52.42      0.15      0.01
  225                -25.67      0.07      0.00
  229               4768.71      3.38      1.34
  231               4443.63      3.15      1.18
  233               4391.18      3.11      1.34
  235                137.75      0.39      0.06
  237                465.91      1.32      0.62
  238                450.49      1.28      0.58
  239                 93.53      0.27      0.03
  240                450.49      1.28      0.58
  241                450.49      1.28      0.58
  243                449.13      0.72      0.14
  245                348.04      0.56      0.09
  247                283.43      0.45      0.06
  249                138.69      0.22      0.02
  251                 64.87      0.14      0.01
  257                 35.80      0.10      0.01
  261                 42.72      0.27      0.05
  263                 25.87      0.07      0.00
  269                 87.47      0.25      0.03
  271                 83.91      0.54      0.19
  273                -20.95      0.06      0.00
  275                -29.89      0.08      0.00
  277                  6.81      0.02      0.00
  281                -36.70      0.15      0.01
  283                -61.10      0.17      0.01
  285                  5.88      0.02      0.00
  287               -153.08      0.63      0.19
  289                395.24      1.61      1.10
  291                 85.60      0.35      0.06
  293                 93.15      0.59      0.23
  295                -55.21      0.16      0.01
  297                508.97      3.25      5.23
  299                244.60      1.56      1.35
  301                244.60      1.56      1.35
  303                264.37      1.69      1.55
  305                157.31      0.45      0.08
  307                421.68      1.20      0.51
  309                225.65      1.44      1.16
  311               -212.41      0.60      0.14
  313                524.67      1.49      0.77
  315              -1953.63      1.39      0.30
  317                111.12      0.71      0.31
  319                 26.64      0.08      0.00
  321               7557.29      3.43      1.06
  323                -17.59      0.05      0.00
  325                128.25      0.82      0.41
  329              13166.31      5.98      3.01
  330                  0.00      0.00      0.00
  333                 -0.00      0.00      0.00
  10                   0.00      0.00      0.00  Pump
  335              13166.31      0.00    -93.37  Pump
   
   
  Node Results at 0:25:00 hrs:
  --------------------------------------------------------
                     Demand      Head  Pressure  Chemical
  Node                  gpm        ft       psi      mg/L
  --------------------------------------------------------
  10                   0.00    144.12     -1.25      0.00
  15                 652.65    122.01     39.00      0.00
  20                   0.00    158.31     12.70      0.00
  35                1530.42    145.36     57.57      0.00
  40                   0.00    145.14      5.74      0.00
  50                   0.00    139.29      9.88      0.00
  60                   0.00    209.00     90.56      0.00
  601                  0.00    302.38    131.02      0.00
  61                   0.00    302.38    131.02      0.00
  101                298.22    144.12     44.25      0.00
  103                209.12    144.10     43.81      0.00
  105                212.53    145.57     50.73      0.00
  107                 85.78    145.57     53.54      0.00
  109                363.30    144.11     53.65      0.00
  111                222.85    145.15     58.56      0.00
  113                 31.42    145.28     62.08      0.00
  115                 81.80    145.88     57.14      0.00
  117                184.80    149.06     58.69      0.00
  119                276.52    157.21     67.25      0.00
  120                  0.00    154.56     66.97      0.00
  121                 65.36    160.80     70.54      0.00
  123                  0.00    165.26     66.84      0.00
  125                 71.59    160.30     64.69      0.00
  127                 27.73    158.89     44.58      0.00
  129                  0.00    158.87     46.74      0.00
  131                 67.12    158.85     66.23      0.00
  139                  9.25    152.28     52.55      0.00
  141                 15.46    147.61     62.23      0.00
  143                  9.73    135.69     60.74      0.00
  145                 43.38    148.91     64.09      0.00
  147                 13.42    149.91     56.94      0.00
  149                 42.50    150.34     58.21      0.00
  151                226.83    154.63     52.48      0.00
  153                 69.35    154.73     38.36      0.00
  157                 81.31    154.74     61.37      0.00
  159                 64.87    151.34     62.98      0.00
  161                 24.81    149.05     62.85      0.00
  163                 14.79    148.59     62.22      0.00
  164                  0.00    148.59     62.22      0.00
  166                  4.08    148.59     65.25      0.00
  167                 22.86    146.71     65.74      0.00
  169                  0.00    146.71     65.74      0.00
  171                 61.76    145.64     64.84      0.00
  173                  0.00    145.62     64.83      0.00
  177                 91.33    145.35     59.51      0.00
  179                  0.00    145.34     59.51      0.00
  181                  0.00    145.37     59.52      0.00
  183                  0.00    145.33     58.21      0.00
  184                  0.00    143.88     55.41      0.00
  185                 40.27    144.47     55.67      0.00
  187                  0.00    145.05     57.43      0.00
  189                169.43    145.47     61.30      0.00
  191                128.58    145.17     52.07      0.00
  193                111.96    145.31     55.16      0.00
  195                  0.00    145.39     56.28      0.00
  197                 26.75    145.16     52.93      0.00
  199                187.33    140.22     61.63      0.00
  201                 70.04    139.48     60.39      0.00
  203               4391.18    139.32     59.50      0.00
  204                  0.00    144.84     53.66      0.00
  205                102.62    140.17     51.64      0.00
  206                  0.00    139.15     59.86      0.00
  207                108.94    139.43     56.51      0.00
  208                  0.00    138.85     53.23      0.00
[...]
  219                 69.00    138.07     58.09      0.00
  225                 38.08    138.08     56.36      0.00
  229                107.18    138.25     55.36      0.00
  231                 27.52    138.25     57.74      0.00
  237                 26.07    138.40     53.90      0.00
  239                 74.50    138.40     54.34      0.00
  241                  0.00    138.40     54.34      0.00
  243                  7.25    138.40     53.90      0.00
  247                117.53    138.40     52.17      0.00
  249                  0.00    138.40     52.17      0.00
  251                 40.35    138.41     46.98      0.00
  253                 91.05    138.54     44.43      0.00
  255                 67.45    138.62     48.37      0.00
  257                  0.00    151.57     58.31      0.00
  259                  0.00    151.10     54.64      0.00
  261                  0.00    149.42     64.74      0.00
  263                  0.00    149.24     64.67      0.00
  265                  0.00    148.24     64.23      0.00
  267                  0.00    146.47     54.37      0.00
  269                  0.00    146.99     63.69      0.00
  271                  0.00    146.57     60.91      0.00
  273                  0.00    140.93     57.60      0.00
  275                  0.00    140.21     56.42      0.00
  River           -13207.62    220.00      0.00      0.00  Reservoir
  Lake                 0.00    167.00      0.00      0.00  Reservoir
  1                 -701.91    148.11      7.02      0.00  Tank
  2                 -382.89    139.59     10.00      0.00  Tank
  3                  274.40    160.63     13.71      0.00  Tank
   
   
  Link Results at 23:55:00 hrs:
  ----------------------------------------------
                       Flow  Velocity  Headloss
  Link                  gpm       fps   /1000ft
  ----------------------------------------------
  20                -274.40      0.01      0.00
  40                 701.91      0.03      0.00
  50                 382.89      0.02      0.00
  60               13207.62      9.37      8.99
  101                  0.00      0.00      0.00
  103                129.96      0.21      0.01
  105               -447.18      1.27      0.57
  107                 -8.12      0.02      0.00
  109                -92.48      0.15      0.01
  111               -478.92      1.36      0.65
  112                438.45      1.24      0.55
  113               -189.57      0.54      0.12
  114                 92.30      0.59      0.22
  115                -99.37      0.63      0.25
  116               -130.68      0.37      0.06
  117                665.12      1.89      1.19
  119               -717.13      2.03      1.37
  120               1208.75      3.43      3.60
  121               1073.99      3.05      2.89
  122                370.08      2.36      2.90
  123               9597.45      4.36      1.66
  125              10932.50      4.96      2.11
  129                895.45      0.64      0.07
  131                615.48      0.44      0.04
  133               -274.40      0.28      0.02
  135                311.59      0.22      0.01
  137                 71.39      0.11      0.00
  145                240.20      1.53      1.30
  147                230.36      1.47      1.20
  149               -338.57      2.16      2.46
  151               -328.22      2.09      2.32
  153                124.66      0.35      0.05
  155                170.81      0.48      0.10
  159               -185.08      0.53      0.11
  161               -230.29      1.47      1.20
  163               -130.05      0.37      0.06
  169                203.82      1.30      0.96
  171                341.52      0.97      0.35
  173               7753.04      3.52      1.12
  175               7666.55      3.48      1.09
  177               7597.54      3.45      1.07
  179               7304.20      3.32      1.00
  180                  4.34      0.01      0.00
  181                  4.34      0.01      0.00
  183               7062.48      3.21      0.94
  185                -24.32      0.16      0.02
  186                288.66      1.84      1.83
  187               6405.28      2.91      0.78
  189               4912.71      2.23      0.48
  191              -1426.87      1.01      0.17
  193              -1870.26      1.33      0.28
  195               -329.70      0.94      0.32
  197               -426.85      1.21      0.52
  199                275.06      0.78      0.23
  201                701.91      1.99      1.32
  202                556.87      3.55      6.18
  203                311.04      1.99      2.10
  204                556.87      1.58      0.86
  205                288.66      0.82      0.25
  207                 35.98      0.10      0.01
  209                221.37      1.41      1.12
  211                632.89      1.80      1.09
  213                 67.29      0.19      0.02
  215                -81.62      0.23      0.02
  217               -320.46      0.91      0.31
  219               -266.96      0.76      0.22
  221                266.96      1.70      1.58
  223               -116.39      0.33      0.05
  225                -87.94      0.25      0.03
  229               4912.71      3.48      1.42
  231               4557.25      3.23      1.24
  233               4454.07      3.16      1.38
  235                156.20      0.44      0.08
  237                490.68      1.39      0.68
  238                516.71      1.47      0.75
  239                141.91      0.40      0.07
  240                516.71      1.47      0.75
  241                516.71      1.47      0.75
  243                515.26      0.82      0.18
  245                375.30      0.60      0.10
  247                301.49      0.48      0.07
  249                147.53      0.24      0.02
  251                 69.00      0.14      0.01
  257                 38.08      0.11      0.01
  261                 50.54      0.32      0.07
  263                 27.52      0.08      0.00
  269                125.47      0.36      0.05
  271                 84.16      0.54      0.19
  273                 15.24      0.04      0.00
  275                -17.75      0.05      0.00
  277                  7.25      0.02      0.00
  281                -24.99      0.10      0.01
  283                -41.51      0.12      0.01
  285                 -3.39      0.01      0.00
  287               -139.14      0.57      0.16
  289                382.89      1.56      1.04
  291                 91.05      0.37      0.07
  293                 85.25      0.54      0.19
  295                -44.90      0.13      0.01
  297                504.84      3.22      5.15
  299                242.71      1.55      1.33
  301                242.71      1.55      1.33
  303                262.13      1.67      1.53
  305                160.28      0.45      0.09
  307                422.41      1.20      0.51
  309                221.64      1.41      1.12
  311               -303.26      0.86      0.28
  313                519.20      1.47      0.75
  315              -1540.56      1.09      0.19
  317                113.24      0.72      0.32
  319                 42.96      0.12      0.01
  321               7284.12      3.31      0.99
  323                 28.68      0.08      0.00
  325                113.69      0.73      0.33
  329              13207.62      5.99      3.03
  330                  0.00      0.00      0.00
  333                 -0.00      0.00      0.00
  10                   0.00      0.00      0.00  Pump
  335              13207.62      0.00    -93.00  Pump
   
   
  Node Results at 24:00:00 hrs:
  --------------------------------------------------------
                     Demand      Head  Pressure  Chemical
  Node                  gpm        ft       psi      mg/L
  --------------------------------------------------------
  10                   0.00    146.71     -0.13      0.00
  15                 652.65    124.39     40.03      0.00
  20                   0.00    160.64     13.71      0.00
  35                1530.42    148.03     58.72      0.00
  40                   0.00    148.03      6.99      0.00
  50                   0.00    139.46      9.95      0.00
  60                   0.00    209.12     90.61      0.00
  601                  0.00    303.19    131.37      0.00
  61                   0.00    303.19    131.37      0.00
  101                298.22    146.71     45.37      0.00
  103                209.12    146.69     44.93      0.00
  105                212.53    148.14     51.84      0.00
  107                 85.78    148.14     54.66      0.00
  109                363.30    146.70     54.77      0.00
  111                222.85    147.75     59.69      0.00
  113                 31.42    147.89     63.21      0.00
  115                 81.80    148.47     58.26      0.00
  117                184.80    151.58     59.79      0.00
  119                276.52    159.62     68.29      0.00
  120                  0.00    157.01     68.03      0.00
  121                 65.36    163.15     71.56      0.00
  123                  0.00    167.56     67.84      0.00
  125                 71.59    162.64     65.71      0.00
  127                 27.73    161.22     45.59      0.00
  129                  0.00    161.21     47.75      0.00
  131                 67.12    161.18     67.24      0.00
  139                  9.25    154.64     53.57      0.00
  141                 15.46    149.99     63.26      0.00
  143                  9.73    138.06     61.77      0.00
  145                 43.38    151.29     65.12     88.11
  147                 13.42    152.29     57.97      0.00
  149                 42.50    152.72     59.24      0.00
  151                226.83    157.02     53.52      0.00
  153                 69.35    157.12     39.40      0.00
  157                 81.31    157.19     62.43      0.00
  159                 64.87    153.86     64.07      0.00
  161                 24.81    151.60     63.96      0.00
  163                 14.79    151.15     63.33      0.00
  164                  0.00    151.15     63.33      0.00
  166                  4.08    151.15     66.36      0.00
  167                 22.86    149.31     66.86      0.00
  169                  0.00    149.31     66.86      0.00
  171                 61.76    148.26     65.97      0.00
  173                  0.00    148.24     65.96      0.00
  177                 91.33    148.03     60.67      0.00
  179                  0.00    148.03     60.67      0.00
  181                  0.00    148.03     60.68      0.00
  183                  0.00    148.01     59.37      0.00
  184                  0.00    146.44     56.52      0.00
  185                 40.27    147.06     56.79      0.00
  187                  0.00    147.66     58.57      0.00
  189                169.43    148.11     62.44      0.00
  191                128.58    147.78     53.20      0.00
  193                111.96    147.92     56.30      0.00
  195                  0.00    148.00     57.41      0.00
  197                 26.75    147.76     54.06      0.00
  199                187.33    142.56     62.64      0.00
  201                 70.04    141.78     61.39      0.00
  203               4391.18    141.62     60.50      0.00
  204                  0.00    147.45     54.79      0.00
  205                102.62    142.48     52.64      0.00
  206                  0.00    141.12     60.72      0.00
  207                108.94    141.58     57.45      0.00
  208                  0.00    140.60     53.99      0.00
  209                  1.37    139.70     61.40      0.00
  211                 13.61    139.40     57.37      0.00
  213                 21.89    139.30     57.32      0.00
  215                144.74    139.04     57.21      0.00
  217                 38.03    139.01     57.63      0.00
  219                 64.87    138.99     58.49      0.00
  225                 35.80    139.00     56.76      0.00
  229                100.76    139.00     55.68      0.00
  231                 25.87    139.00     58.06      0.00
  237                 24.51    139.07     54.19      0.00
  239                 70.04    139.04     54.61      0.00
  241                  0.00    139.04     54.61      0.00
  243                  6.81    139.04     54.18      0.00
  247                110.50    139.04     52.44      0.00
  249                  0.00    139.04     52.44      0.00
  251                 37.93    139.04     47.25      0.00
  253                 85.60    139.00     44.63      0.00
  255                 63.41    139.07     48.56      0.00
  257                  0.00    153.68     59.22      0.00
  259                  0.00    153.21     55.56      0.00
  261                  0.00    151.53     65.66      0.00
  263                  0.00    151.35     65.58      0.00
  265                  0.00    149.90     64.95      0.00
  267                  0.00    148.11     55.08      0.00
  269                  0.00    148.59     64.39      0.00
  271                  0.00    148.10     61.57      0.00
  273                  0.00    142.49     58.27      0.00
  275                  0.00    141.77     57.10      0.00
  River           -13087.00    220.00      0.00      0.00  Reservoir
  Lake                 0.00    167.00      0.00      0.00  Reservoir
  1                  -11.11    148.03      6.99      0.00  Tank
  2                 -233.70    139.46      9.95      0.00  Tank
  3                 1972.03    160.64     13.71      0.00  Tank
   
   
  Link Results at 24:00:00 hrs:
  ----------------------------------------------
                       Flow  Velocity  Headloss
  Link                  gpm       fps   /1000ft
  ----------------------------------------------
  20               -1972.03      0.08      0.00
  40                  11.11      0.00      0.00
  50                 233.70      0.01      0.00
  60               13087.00      9.28      8.84
  101                  0.00      0.00      0.00
  103                145.03      0.23      0.02
  105               -443.25      1.26      0.56
  107                  6.07      0.02      0.00
  109                -64.10      0.10      0.00
  111               -427.39      1.21      0.53
  112                465.65      1.32      0.62
  113               -153.38      0.44      0.08
  114                106.94      0.68      0.29
  115                -79.72      0.51      0.17
  116                -77.85      0.22      0.02
  117                661.85      1.88      1.18
  119               -734.10      2.08      1.43
  120               1203.87      3.42      3.57
  121               1075.43      3.05      2.90
  122                376.88      2.41      3.00
  123               9941.83      4.51      1.77
  125              13087.00      5.94      2.94
  129               2702.93      1.92      0.55
  131               2400.32      1.70      0.44
  133              -1972.03      2.01      0.74
  135                400.56      0.28      0.02
  137                 67.12      0.11      0.00
  145                333.45      2.13      2.39
  147                324.20      2.07      2.27
  149               -662.38      4.23      8.52
  151               -652.65      4.17      8.29
  153                353.65      1.00      0.37
  155                397.03      1.13      0.46
  159               -410.45      1.16      0.49
  161               -452.95      2.89      4.21
  163               -161.67      0.46      0.09
  169                231.01      1.47      1.21
  171                518.12      1.47      0.75
  173               7943.32      3.61      1.17
  175               7862.01      3.57      1.14
  177               7797.14      3.54      1.13
  179               7506.90      3.41      1.05
  180                  4.08      0.01      0.00
  181                  4.08      0.01      0.00
  183               7265.53      3.30      0.99
  185                -22.86      0.15      0.02
  186                311.49      1.99      2.11
  187               6601.55      3.00      0.83
  189               4909.71      2.23      0.48
  191              -1630.08      1.16      0.21
  193              -1530.42      1.09      0.19
  195                223.99      0.64      0.16
  197                132.66      0.38      0.06
  199                143.77      0.41      0.07
  201                 11.11      0.03      0.00
  202                562.42      3.59      6.29
  203                291.20      1.86      1.86
  204                562.42      1.60      0.87
  205                311.49      0.88      0.29
  207                147.43      0.42      0.07
  209                196.65      1.26      0.90
  211                641.12      1.82      1.11
  213                114.84      0.33      0.05
  215                 -3.27      0.01      0.00
  217               -301.39      0.85      0.27
  219               -265.43      0.75      0.22
  221                265.43      1.69      1.57
  223                -57.97      0.16      0.01
  225                -31.22      0.09      0.00
  229               4909.71      3.48      1.42
  231               4551.76      3.23      1.23
  233               4391.18      3.11      1.34
  235                170.62      0.48      0.10
  237                517.56      1.47      0.75
  238                612.03      1.74      1.02
  239                203.41      0.58      0.13
  240                612.03      1.74      1.02
  241                612.03      1.74      1.02
  243                610.66      0.97      0.25
  245                375.48      0.60      0.10
  247                283.43      0.45      0.06
  249                138.69      0.22      0.02
  251                 64.87      0.14      0.01
  257                 35.80      0.10      0.01
  261                 70.17      0.45      0.13
  263                 25.87      0.07      0.00
  269                221.56      0.63      0.16
  271                 56.47      0.36      0.09
  273                140.59      0.40      0.07
  275                 30.64      0.09      0.00
  277                  6.81      0.02      0.00
  281                 23.83      0.10      0.01
  283                 39.90      0.11      0.01
  285                -34.79      0.10      0.00
  287                -51.88      0.21      0.03
  289                233.70      0.95      0.42
  291                 85.60      0.35      0.06
  293                 32.81      0.21      0.03
  295                  5.12      0.01      0.00
  297                505.32      3.23      5.16
  299                242.85      1.55      1.33
  301                242.85      1.55      1.33
  303                262.47      1.68      1.53
  305                156.53      0.44      0.08
  307                419.00      1.19      0.51
  309                222.50      1.42      1.13
  311               -225.77      0.64      0.16
  313                516.79      1.47      0.75
  315              -1754.41      1.24      0.25
  317                112.87      0.72      0.32
  319                 57.75      0.16      0.01
  321               7488.03      3.40      1.05
  323                 90.54      0.26      0.03
  325                124.33      0.79      0.38
  329              13087.00      5.94      2.98
  330                  0.00      0.00      0.00
  333                 -0.00      0.00      0.00
  10                   0.00      0.00      0.00  Pump
  335              13087.00      0.00    -94.07  Pump
   
  Analysis ended Wed May 06 17:53:49 2020
