  Page 1                                    Wed May 06 17:54:59 2020

  ******************************************************************
  *                           E P A N E T                          *
  *                   Hydraulic and Water Quality                  *
  *                   Analysis for Pipe Networks                   *
  *                         Version 2.00.12                        *
  ******************************************************************
  
  Analysis begun Wed May 06 17:54:59 2020

   
  Hydraulic Status:
  -----------------------------------------------------------------------
     0:00:00: Balanced after 6 trials
     0:00:00: Reservoir River is emptying
     0:00:00: Reservoir Lake is closed
     0:00:00: Tank 1 is filling at 13.10 ft
     0:00:00: Tank 2 is emptying at 23.50 ft
     0:00:00: Tank 3 is filling at 29.00 ft
   
     0:05:00: Balanced after 2 trials
   
     0:10:00: Balanced after 2 trials
   
     0:15:00: Balanced after 2 trials
   
     0:20:00: Balanced after 2 trials
   
     0:25:00: Balanced after 2 trials
   
     0:30:00: Balanced after 2 trials
   
     0:35:00: Balanced after 2 trials
   
     0:40:00: Balanced after 2 trials
   
     0:45:00: Balanced after 2 trials
   
     0:50:00: Balanced after 2 trials
   
     0:55:00: Balanced after 2 trials
   
     1:00:00: Pump 10 changed by timer control
     1:00:00: Balanced after 7 trials
     1:00:00: Reservoir Lake is emptying
     1:00:00: Pump 10 changed from closed to open
   
     1:05:00: Balanced after 2 trials
   
     1:10:00: Balanced after 2 trials
   
     1:15:00: Balanced after 2 trials
   
     1:20:00: Balanced after 2 trials
   
     1:25:00: Balanced after 2 trials
   
     1:30:00: Balanced after 2 trials
   
     1:35:00: Balanced after 2 trials
   
     1:40:00: Balanced after 2 trials
   
     1:45:00: Balanced after 2 trials
   
     1:50:00: Balanced after 2 trials
   
     1:55:00: Balanced after 2 trials
   
     2:00:00: Balanced after 3 trials
     2:00:00: Tank 2 is filling at 20.83 ft
   
     2:05:00: Balanced after 1 trials
   
     2:10:00: Balanced after 1 trials
   
     2:15:00: Balanced after 1 trials
   
     2:20:00: Balanced after 1 trials
   
     2:25:00: Balanced after 1 trials
   
     2:30:00: Balanced after 1 trials
   
     2:35:00: Balanced after 1 trials
   
     2:40:00: Balanced after 1 trials
   
     2:45:00: Balanced after 1 trials
   
     2:50:00: Balanced after 1 trials
   
     2:55:00: Balanced after 1 trials
   
     3:00:00: Balanced after 3 trials
   
     3:05:00: Balanced after 1 trials
   
     3:10:00: Balanced after 1 trials
   
     3:15:00: Balanced after 1 trials
   
     3:20:00: Balanced after 1 trials
   
     3:25:00: Balanced after 1 trials
   
     3:30:00: Balanced after 1 trials
   
     3:35:00: Balanced after 1 trials
   
     3:40:00: Balanced after 1 trials
   
     3:45:00: Balanced after 1 trials
   
     3:50:00: Balanced after 1 trials
   
     3:55:00: Balanced after 1 trials
   
     4:00:00: Balanced after 3 trials
   
     4:05:00: Balanced after 1 trials
   
     4:10:00: Balanced after 1 trials
   
     4:15:00: Balanced after 1 trials
   
     4:18:31: Pump 335 changed by Tank 1 control
     4:18:31: Pipe 330 changed by Tank 1 control
     4:18:31: Balanced after 4 trials
     4:18:31: Pipe 330 changed from closed to open
     4:18:31: Pump 335 changed from open to closed
   
     4:20:00: Balanced after 1 trials
   
     4:25:00: Balanced after 2 trials
   
     4:30:00: Balanced after 2 trials
   
     4:35:00: Balanced after 2 trials
   
     4:40:00: Balanced after 2 trials
   
     4:45:00: Balanced after 2 trials
   
     4:50:00: Balanced after 2 trials
   
     4:55:00: Balanced after 2 trials
   
     5:00:00: Balanced after 3 trials
     5:00:00: Tank 3 is emptying at 34.42 ft
   
     5:05:00: Balanced after 2 trials
   
     5:10:00: Balanced after 2 trials
   
     5:15:00: Balanced after 2 trials
   
     5:20:00: Balanced after 2 trials
   
     5:25:00: Balanced after 2 trials
   
     5:30:00: Balanced after 2 trials
   
     5:35:00: Balanced after 2 trials
   
     5:40:00: Balanced after 2 trials
   
     5:45:00: Balanced after 2 trials
   
     5:50:00: Balanced after 2 trials
   
     5:55:00: Balanced after 2 trials
   
     6:00:00: Balanced after 4 trials
     6:00:00: Tank 3 is filling at 34.08 ft
   
     6:05:00: Balanced after 2 trials
   
     6:10:00: Balanced after 2 trials
   
     6:15:00: Balanced after 2 trials
   
     6:20:00: Balanced after 2 trials
   
     6:25:00: Balanced after 2 trials
   
     6:30:00: Balanced after 2 trials
   
     6:35:00: Balanced after 2 trials
   
     6:40:00: Balanced after 1 trials
   
     6:45:00: Balanced after 1 trials
   
     6:50:00: Balanced after 1 trials
   
     6:55:00: Balanced after 1 trials
   
     7:00:00: Balanced after 3 trials
   
     7:05:00: Balanced after 1 trials
   
     7:10:00: Balanced after 1 trials
   
     7:15:00: Balanced after 1 trials
   
     7:20:00: Balanced after 1 trials
   
     7:25:00: Balanced after 1 trials
   
     7:30:00: Balanced after 1 trials
   
     7:35:00: Balanced after 1 trials
   
     7:40:00: Balanced after 1 trials
   
     7:45:00: Balanced after 1 trials
   
     7:50:00: Balanced after 1 trials
   
     7:55:00: Balanced after 1 trials
   
     8:00:00: Balanced after 3 trials
     8:00:00: Tank 2 is emptying at 26.12 ft
   
     8:05:00: Balanced after 1 trials
   
     8:10:00: Balanced after 1 trials
   
     8:15:00: Balanced after 1 trials
   
     8:20:00: Balanced after 1 trials
   
     8:25:00: Balanced after 1 trials
   
     8:30:00: Balanced after 1 trials
   
     8:35:00: Balanced after 1 trials
   
     8:40:00: Balanced after 1 trials
   
     8:45:00: Balanced after 1 trials
   
     8:50:00: Balanced after 1 trials
   
     8:55:00: Balanced after 1 trials
   
     9:00:00: Balanced after 3 trials
     9:00:00: Tank 2 is filling at 25.98 ft
     9:00:00: Tank 3 is emptying at 34.92 ft
   
     9:05:00: Balanced after 2 trials
   
     9:10:00: Balanced after 2 trials
   
     9:15:00: Balanced after 2 trials
   
     9:20:00: Balanced after 2 trials
   
     9:25:00: Balanced after 2 trials
   
     9:30:00: Balanced after 2 trials
   
     9:35:00: Balanced after 2 trials
   
     9:40:00: Balanced after 2 trials
   
     9:45:00: Balanced after 2 trials
   
     9:50:00: Balanced after 2 trials
   
     9:55:00: Balanced after 2 trials
   
    10:00:00: Balanced after 4 trials
    10:00:00: Tank 1 is emptying at 21.33 ft
    10:00:00: Tank 2 is emptying at 26.23 ft
   
    10:05:00: Balanced after 1 trials
   
    10:10:00: Balanced after 1 trials
   
    10:15:00: Balanced after 1 trials
   
    10:20:00: Balanced after 1 trials
   
    10:25:00: Balanced after 1 trials
   
    10:30:00: Balanced after 1 trials
   
    10:35:00: Balanced after 1 trials
   
    10:40:00: Balanced after 1 trials
   
    10:45:00: Balanced after 1 trials
   
    10:50:00: Balanced after 1 trials
   
    10:55:00: Balanced after 1 trials
   
    11:00:00: Balanced after 3 trials
   
    11:05:00: Balanced after 1 trials
   
    11:10:00: Balanced after 1 trials
   
    11:15:00: Balanced after 1 trials
   
    11:20:00: Balanced after 1 trials
   
    11:25:00: Balanced after 1 trials
   
    11:30:00: Balanced after 1 trials
   
    11:35:00: Balanced after 1 trials
   
    11:40:00: Balanced after 1 trials
   
    11:45:00: Balanced after 1 trials
   
    11:50:00: Balanced after 1 trials
   
    11:55:00: Balanced after 1 trials
   
    12:00:00: Balanced after 3 trials
   
    12:05:00: Balanced after 1 trials
   
    12:10:00: Balanced after 1 trials
   
    12:15:00: Balanced after 1 trials
   
    12:20:00: Balanced after 1 trials
   
    12:25:00: Balanced after 1 trials
   
    12:30:00: Balanced after 1 trials
   
    12:35:00: Balanced after 1 trials
   
    12:40:00: Balanced after 1 trials
   
    12:45:00: Balanced after 1 trials
   
    12:50:00: Balanced after 1 trials
   
    12:55:00: Balanced after 1 trials
   
    13:00:00: Balanced after 3 trials
    13:00:00: Tank 1 is filling at 19.81 ft
    13:00:00: Tank 2 is filling at 24.75 ft
   
    13:05:00: Balanced after 2 trials
   
    13:10:00: Balanced after 2 trials
   
    13:15:00: Balanced after 2 trials
   
    13:20:00: Balanced after 2 trials
   
    13:25:00: Balanced after 2 trials
   
    13:30:00: Balanced after 2 trials
   
    13:35:00: Balanced after 2 trials
   
    13:40:00: Balanced after 2 trials
   
    13:45:00: Balanced after 2 trials
   
    13:50:00: Balanced after 2 trials
   
    13:55:00: Balanced after 2 trials
   
    14:00:00: Balanced after 3 trials
   
    14:05:00: Balanced after 2 trials
   
    14:10:00: Balanced after 2 trials
   
    14:15:00: Balanced after 2 trials
   
    14:20:00: Balanced after 2 trials
   
    14:25:00: Balanced after 2 trials
   
    14:30:00: Balanced after 2 trials
   
    14:35:00: Balanced after 2 trials
   
    14:40:00: Balanced after 2 trials
   
    14:45:00: Balanced after 2 trials
   
    14:50:00: Balanced after 2 trials
   
    14:55:00: Balanced after 2 trials
   
    15:00:00: Pump 10 changed by timer control
    15:00:00: Balanced after 5 trials
    15:00:00: Reservoir Lake is closed
    15:00:00: Tank 1 is emptying at 20.52 ft
    15:00:00: Tank 2 is emptying at 25.80 ft
    15:00:00: Pump 10 changed from open to closed
   
    15:05:00: Balanced after 2 trials
   
    15:10:00: Balanced after 2 trials
   
    15:15:00: Balanced after 2 trials
   
    15:20:00: Balanced after 2 trials
   
    15:25:00: Balanced after 2 trials
   
    15:30:00: Balanced after 2 trials
   
    15:35:00: Balanced after 2 trials
   
    15:40:00: Balanced after 2 trials
   
    15:45:00: Balanced after 2 trials
   
    15:50:00: Balanced after 2 trials
   
    15:55:00: Balanced after 2 trials
   
    16:00:00: Balanced after 3 trials
    16:00:00: Tank 2 is filling at 25.64 ft
   
    16:05:00: Balanced after 2 trials
   
    16:10:00: Balanced after 2 trials
   
    16:15:00: Balanced after 2 trials
   
    16:20:00: Balanced after 2 trials
   
    16:25:00: Balanced after 2 trials
   
    16:30:00: Balanced after 2 trials
   
    16:35:00: Balanced after 2 trials
   
    16:40:00: Balanced after 1 trials
   
    16:45:00: Balanced after 1 trials
   
    16:50:00: Balanced after 1 trials
   
    16:55:00: Balanced after 1 trials
   
    17:00:00: Balanced after 3 trials
    17:00:00: Tank 2 is emptying at 25.81 ft
   
    17:05:00: Balanced after 1 trials
   
    17:10:00: Balanced after 1 trials
   
    17:15:00: Balanced after 1 trials
   
    17:20:00: Balanced after 1 trials
   
    17:25:00: Balanced after 1 trials
   
    17:30:00: Balanced after 1 trials
   
    17:35:00: Balanced after 1 trials
   
    17:40:00: Balanced after 1 trials
   
    17:45:00: Balanced after 1 trials
   
    17:50:00: Balanced after 1 trials
   
    17:55:00: Balanced after 1 trials
   
    18:00:00: Balanced after 4 trials
    18:00:00: Tank 1 is filling at 17.66 ft
    18:00:00: Tank 2 is filling at 25.48 ft
   
    18:05:00: Balanced after 2 trials
   
    18:10:00: Balanced after 2 trials
    18:10:00: Tank 1 is emptying at 17.66 ft
   
    18:15:00: Balanced after 2 trials
   
    18:20:00: Balanced after 2 trials
   
    18:25:00: Balanced after 2 trials
   
    18:30:00: Balanced after 2 trials
   
    18:35:00: Balanced after 2 trials
   
    18:40:00: Balanced after 2 trials
   
    18:45:00: Balanced after 2 trials
   
    18:50:00: Balanced after 2 trials
   
    18:55:00: Balanced after 2 trials
   
    19:00:00: Balanced after 4 trials
    19:00:00: Tank 2 is emptying at 26.03 ft
   
    19:05:00: Balanced after 1 trials
   
    19:10:00: Balanced after 1 trials
   
    19:15:00: Balanced after 1 trials
   
    19:20:00: Balanced after 1 trials
   
    19:25:00: Balanced after 1 trials
   
    19:30:00: Balanced after 1 trials
   
    19:35:00: Balanced after 1 trials
   
    19:40:00: Balanced after 1 trials
   
    19:40:25: Pump 335 changed by Tank 1 control
    19:40:25: Pipe 330 changed by Tank 1 control
    19:40:25: Balanced after 5 trials
    19:40:25: Tank 1 is filling at 17.10 ft
    19:40:25: Tank 3 is filling at 29.65 ft
    19:40:25: Pipe 330 changed from open to closed
    19:40:25: Pump 335 changed from closed to open
   
    19:45:00: Balanced after 2 trials
   
    19:50:00: Balanced after 2 trials
   
    19:55:00: Balanced after 2 trials
   
    20:00:00: Balanced after 4 trials
    20:00:00: Tank 2 is filling at 25.41 ft
   
    20:05:00: Balanced after 1 trials
   
    20:10:00: Balanced after 1 trials
   
    20:15:00: Balanced after 1 trials
   
    20:20:00: Balanced after 1 trials
   
    20:25:00: Balanced after 1 trials
   
    20:30:00: Balanced after 1 trials
   
    20:35:00: Balanced after 1 trials
   
    20:40:00: Balanced after 1 trials
   
    20:45:00: Balanced after 1 trials
   
    20:50:00: Balanced after 1 trials
   
    20:55:00: Balanced after 1 trials
   
    21:00:00: Balanced after 3 trials
   
    21:05:00: Balanced after 1 trials
   
    21:10:00: Balanced after 1 trials
   
    21:15:00: Balanced after 1 trials
   
    21:20:00: Balanced after 1 trials
   
    21:25:00: Balanced after 1 trials
   
    21:30:00: Balanced after 1 trials
   
    21:35:00: Balanced after 1 trials
   
    21:40:00: Balanced after 1 trials
   
    21:45:00: Balanced after 1 trials
   
    21:50:00: Balanced after 1 trials
   
    21:55:00: Balanced after 1 trials
   
    22:00:00: Balanced after 4 trials
    22:00:00: Tank 1 is emptying at 18.60 ft
    22:00:00: Tank 2 is emptying at 26.51 ft
   
    22:05:00: Balanced after 2 trials
   
    22:10:00: Balanced after 2 trials
   
    22:15:00: Balanced after 2 trials
   
    22:20:00: Balanced after 2 trials
   
    22:25:00: Balanced after 2 trials
   
    22:30:00: Balanced after 2 trials
   
    22:35:00: Balanced after 2 trials
   
    22:40:00: Balanced after 2 trials
   
    22:45:00: Balanced after 2 trials
   
    22:50:00: Balanced after 2 trials
   
    22:55:00: Balanced after 2 trials
   
    23:00:00: Balanced after 3 trials
   
    23:05:00: Balanced after 2 trials
   
    23:10:00: Balanced after 2 trials
   
    23:15:00: Balanced after 2 trials
   
    23:20:00: Balanced after 2 trials
   
    23:25:00: Balanced after 2 trials
   
    23:30:00: Balanced after 2 trials
   
    23:35:00: Balanced after 2 trials
   
    23:40:00: Balanced after 2 trials
   
    23:45:00: Balanced after 2 trials
   
    23:50:00: Balanced after 2 trials
   
    23:55:00: Balanced after 2 trials
   
    24:00:00: Balanced after 3 trials
   
   
  Node Results at 0:00:00 hrs:
  --------------------------------------------------------
                     Demand      Head  Pressure  Chemical
  Node                  gpm        ft       psi      mg/L
  --------------------------------------------------------
  10                   0.00    143.67     -1.44      0.00
  15                 607.02    125.91     40.69      0.00
  20                   0.00    158.00     12.57      0.00
  35                1441.79    145.02     57.42      0.00
  40                   0.00    145.00      5.68      0.00
  50                   0.00    140.00     10.18      0.00
  60                   0.00    208.98     90.55      0.00
  601                  0.00    302.27    130.98      0.00
  61                   0.00    302.27    130.98      0.00
  101                302.02    143.67     44.05      0.00
  103                211.79    143.64     43.61      0.00
  105                215.24    145.13     50.53      0.00
  107                 86.88    145.13     53.35      0.00
  109                367.93    143.66     53.45      0.00
  111                225.68    144.73     58.38      0.00
  113                 31.82    144.87     61.90      0.00
  115                 82.84    145.46     56.96      0.00
  117                187.16    148.65     58.52      0.00
  119                280.05    156.88     67.11      0.00
  120                  0.00    154.21     66.82      0.00
  121                 66.19    160.48     70.40      0.00
  123                  0.00    164.95     66.71      0.00
  125                 72.50    159.98     64.55      0.00
  127                 28.08    158.58     44.45      0.00
  129                  0.00    158.57     46.61      0.00
  131                 67.97    158.54     66.10      0.00
  139                  9.37    152.56     52.67      0.00
  141                 15.66    148.32     62.53      0.00
  143                  9.86    137.86     61.69      0.00
  145                 43.93    149.42     64.31      0.00
  147                 13.59    150.30     57.11      0.00
  149                 43.04    150.67     58.35      0.00
  151                229.72    154.48     52.42      0.00
  153                 70.23    154.58     38.30      0.00
  157                 82.35    154.40     61.22      0.00
  159                 65.70    150.98     62.82      0.00
  161                 25.12    148.67     62.69      0.00
  163                 14.98    148.21     62.05      0.00
  164                  0.00    148.21     62.05      0.00
  166                  4.13    148.21     65.09      0.00
  167                 23.15    146.33     65.57      0.00
  169                  0.00    146.33     65.57      0.00
  171                 62.55    145.25     64.67      0.00
  173                  0.00    145.22     64.66      0.00
  177                 92.49    145.02     59.37      0.00
  179                  0.00    145.01     59.37      0.00
  181                  0.00    145.03     59.37      0.00
  183                  0.00    145.00     58.06      0.00
  184                  0.00    143.37     55.19      0.00
  185                 40.78    144.02     55.47      0.00
  187                  0.00    144.64     57.25      0.00
  189                171.59    145.10     61.14      0.00
  191                130.22    144.76     51.89      0.00
  193                113.38    144.91     54.99      0.00
  195                  0.00    144.99     56.11      0.00
  197                 27.09    144.74     52.75      0.00
  199                189.72    139.32     61.24      0.00
  201                 70.93    138.50     59.97      0.00
  203               4764.31    138.31     59.06      0.00
  204                  0.00    144.42     53.48      0.00
  205                103.92    139.29     51.25      0.00
  206                  0.00    138.36     59.52      0.00
  207                110.33    138.52     56.12      0.00
  208                  0.00    138.18     52.94      0.00
  209                  1.38    137.87     60.60      0.00
  211                 13.79    137.76     56.66      0.00
  213                 22.16    137.67     56.62      0.00
  215                146.58    137.41     56.51      0.00
  217                 38.51    137.38     56.93      0.00
  219                 65.70    137.37     57.79      0.00
  225                 36.25    137.37     56.06      0.00
  229                102.05    137.59     55.07      0.00
  231                 26.20    137.58     57.45      0.00
  237                 24.82    137.76     53.63      0.00
  239                 70.93    137.79     54.07      0.00
  241                  0.00    137.79     54.07      0.00
  243                  6.90    137.79     53.64      0.00
  247                111.90    137.82     51.92      0.00
  249                  0.00    137.82     51.92      0.00
  251                 38.41    137.87     46.74      0.00
  253                 86.69    138.29     44.32      0.00
  255                 64.22    138.36     48.25      0.00
  257                  0.00    150.80     57.98      0.00
  259                  0.00    150.32     54.30      0.00
  261                  0.00    148.60     64.39      0.00
  263                  0.00    148.42     64.31      0.00
  265                  0.00    146.92     63.66      0.00
  267                  0.00    145.10     53.77      0.00
  269                  0.00    145.59     63.09      0.00
  271                  0.00    145.09     60.27      0.00
  273                  0.00    139.29     56.89      0.00
  275                  0.00    138.52     55.69      0.00
  River           -13175.26    220.00      0.00      0.00  Reservoir
  Lake                 0.00    167.00      0.00      0.00  Reservoir
  1                   56.20    145.00      5.68      0.00  Tank
  2                 -510.65    140.00     10.18      0.00  Tank
  3                 1970.09    158.00     12.57      0.00  Tank
   
   
  Link Results at 0:00:00 hrs:
  ----------------------------------------------
                       Flow  Velocity  Headloss
  Link                  gpm       fps   /1000ft
  ----------------------------------------------
  20               -1970.09      0.08      0.00
  40                 -56.20      0.00      0.00
  50                 510.65      0.02      0.00
  60               13175.26      9.34      8.95
  101                  0.00      0.00      0.00
  103                146.93      0.23      0.02
  105               -448.95      1.27      0.58
  107                  6.17      0.02      0.00
  109                -64.86      0.10      0.00
  111               -432.79      1.23      0.54
  112                471.70      1.34      0.63
  113               -155.39      0.44      0.08
  114                108.33      0.69      0.30
  115                -80.70      0.52      0.17
  116                -78.88      0.22      0.02
  117                670.36      1.90      1.21
  119               -743.58      2.11      1.46
  120               1219.87      3.46      3.66
  121               1089.27      3.09      2.97
  122                381.22      2.43      3.06
  123              10043.12      4.56      1.80
  125              13175.26      5.98      2.98
  129               2684.72      1.90      0.54
  131               2383.95      1.69      0.43
  133              -1970.09      2.01      0.74
  135                385.77      0.27      0.01
  137                 67.97      0.11      0.00
  145                317.80      2.03      2.19
  147                308.44      1.97      2.07
  149               -616.88      3.94      7.47
  151               -607.02      3.87      7.25
  153                324.10      0.92      0.31
  155                368.04      1.04      0.40
  159               -381.63      1.08      0.43
  161               -424.67      2.71      3.74
  163               -158.04      0.45      0.08
  169                228.27      1.46      1.18
  171                496.35      1.41      0.69
  173               8046.85      3.65      1.20
  175               7964.50      3.61      1.17
  177               7898.80      3.59      1.15
  179               7604.84      3.45      1.08
  180                  4.13      0.01      0.00
  181                  4.13      0.01      0.00
  183               7360.46      3.34      1.01
  185                -23.15      0.15      0.02
  186                316.77      2.02      2.17
  187               6688.66      3.04      0.85
  189               5012.73      2.28      0.50
  191              -1613.38      1.14      0.21
  193              -1441.79      1.02      0.17
  195                296.87      0.84      0.27
  197                204.38      0.58      0.13
  199                148.18      0.42      0.07
  201                -56.20      0.16      0.01
  202                572.33      3.65      6.50
  203                296.34      1.89      1.92
  204                572.33      1.62      0.90
  205                316.77      0.90      0.30
  207                148.16      0.42      0.07
  209                199.76      1.28      0.93
  211                648.65      1.84      1.14
  213                117.01      0.33      0.05
  215                 -3.85      0.01      0.00
  217               -305.70      0.87      0.28
  219               -268.84      0.76      0.22
  221                268.84      1.72      1.60
  223                -58.47      0.17      0.01
  225                -31.37      0.09      0.00
  229               5012.73      3.56      1.48
  231               4699.58      3.33      1.31
  233               4764.31      3.38      1.56
  235                123.43      0.35      0.05
  237                474.70      1.35      0.64
  238                345.85      0.98      0.35
  239                -18.52      0.05      0.00
  240                345.85      0.98      0.35
  241                345.85      0.98      0.35
  243                344.46      0.55      0.09
  245                345.36      0.55      0.09
  247                287.04      0.46      0.06
  249                140.46      0.22      0.02
  251                 65.70      0.14      0.01
  257                 36.25      0.10      0.01
  261                 36.15      0.23      0.04
  263                 26.20      0.07      0.00
  269                -14.68      0.04      0.00
  271                 92.10      0.59      0.22
  273               -131.60      0.37      0.06
  275                -71.60      0.20      0.02
  277                  6.90      0.02      0.00
  281                -78.50      0.32      0.06
  283               -130.93      0.37      0.06
  285                 34.46      0.10      0.01
  287               -224.87      0.92      0.39
  289                510.65      2.09      1.77
  291                 86.69      0.35      0.07
  293                134.88      0.86      0.45
  295                -96.46      0.27      0.03
  297                511.83      3.27      5.28
  299                245.98      1.57      1.36
  301                245.98      1.57      1.36
  303                265.85      1.70      1.57
  305                158.53      0.45      0.08
  307                424.38      1.20      0.52
  309                225.27      1.44      1.16
  311               -229.12      0.65      0.17
  313                523.37      1.48      0.76
  315              -1738.66      1.23      0.24
  317                117.14      0.75      0.34
  319                  6.30      0.02      0.00
  321               7585.73      3.44      1.07
  323               -135.66      0.38      0.06
  325                125.28      0.80      0.39
  329              13175.26      5.98      3.02
  330                  0.00      0.00      0.00
  333                 -0.00      0.00      0.00
  10                   0.00      0.00      0.00  Pump
  335              13175.26      0.00    -93.29  Pump
   
   
  Node Results at 0:05:00 hrs:
  --------------------------------------------------------
                     Demand      Head  Pressure  Chemical
  Node                  gpm        ft       psi      mg/L
  --------------------------------------------------------
  10                   0.00    143.68     -1.44      0.00
  15                 607.02    125.95     40.71      0.00
  20                   0.00    158.06     12.59      0.00
  35                1441.79    145.03     57.42      0.00
  40                   0.00    145.01      5.68      0.00
  50                   0.00    139.83     10.11      0.00
  60                   0.00    208.99     90.55      0.00
  601                  0.00    302.29    130.98      0.00
  61                   0.00    302.29    130.98      0.00
  101                302.02    143.68     44.06      0.00
  103                211.79    143.65     43.61      0.00
  105                215.24    145.14     50.54      0.00
  107                 86.88    145.14     53.36      0.00
  109                367.93    143.67     53.46      0.00
  111                225.68    144.74     58.38      0.00
  113                 31.82    144.88     61.91      0.00
  115                 82.84    145.47     56.97      0.00
  117                187.16    148.67     58.53      0.00
  119                280.05    156.91     67.12      0.00
  120                  0.00    154.24     66.83      0.00
  121                 66.19    160.52     70.42      0.00
  123                  0.00    164.99     66.72      0.00
  125                 72.50    160.03     64.57      0.00
  127                 28.08    158.64     44.47      0.00
  129                  0.00    158.62     46.63      0.00
  131                 67.97    158.59     66.12      0.00
  139                  9.37    152.60     52.69      0.00
  141                 15.66    148.36     62.55      0.00
  143                  9.86    137.91     61.70      0.00
  145                 43.93    149.46     64.33      0.00
  147                 13.59    150.34     57.12      0.00
  149                 43.04    150.71     58.37      0.00
  151                229.72    154.52     52.44      0.00
  153                 70.23    154.62     38.31      0.00
  157                 82.35    154.42     61.23      0.00
  159                 65.70    151.00     62.83      0.00
  161                 25.12    148.69     62.69      0.00
  163                 14.98    148.22     62.06      0.00
  164                  0.00    148.22     62.06      0.00
  166                  4.13    148.22     65.09      0.00
  167                 23.15    146.33     65.57      0.00
  169                  0.00    146.34     65.57      0.00
  171                 62.55    145.26     64.67      0.00
  173                  0.00    145.23     64.66      0.00
  177                 92.49    145.03     59.37      0.00
  179                  0.00    145.02     59.37      0.00
  181                  0.00    145.03     59.38      0.00
  183                  0.00    145.01     58.06      0.00
  184                  0.00    143.37     55.19      0.00
  185                 40.78    144.02     55.47      0.00
  187                  0.00    144.64     57.26      0.00
  189                171.59    145.11     61.14      0.00
  191                130.22    144.77     51.90      0.00
  193                113.38    144.91     54.99      0.00
  195                  0.00    144.99     56.11      0.00
  197                 27.09    144.75     52.76      0.00
  199                189.72    139.31     61.23      0.00
  201                 70.93    138.48     59.96      0.00
  203               4764.31    138.29     59.06      0.00
  204                  0.00    144.43     53.48      0.00
  205                103.92    139.27     51.25      0.00
  206                  0.00    138.33     59.50      0.00
  207                110.33    138.50     56.11      0.00
  208                  0.00    138.14     52.92      0.00
  209                  1.38    137.80     60.58      0.00
  211                 13.79    137.69     56.63      0.00
  213                 22.16    137.61     56.59      0.00
  215                146.58    137.34     56.48      0.00
  217                 38.51    137.31     56.90      0.00
  219                 65.70    137.30     57.76      0.00
  225                 36.25    137.31     56.03      0.00
  229                102.05    137.52     55.04      0.00
  231                 26.20    137.51     57.42      0.00
  237                 24.82    137.69     53.60      0.00
  239                 70.93    137.72     54.04      0.00
  241                  0.00    137.72     54.04      0.00
  243                  6.90    137.72     53.61      0.00
  247                111.90    137.74     51.88      0.00
  249                  0.00    137.74     51.88      0.00
  251                 38.41    137.79     46.70      0.00
  253                 86.69    138.18     44.27      0.00
  255                 64.22    138.25     48.20      0.00
  257                  0.00    150.82     57.99      0.00
  259                  0.00    150.35     54.31      0.00
  261                  0.00    148.62     64.40      0.00
  263                  0.00    148.44     64.32      0.00
  265                  0.00    146.93     63.67      0.00
  267                  0.00    145.11     53.78      0.00
  269                  0.00    145.60     63.09      0.00
  271                  0.00    145.10     60.27      0.00
  273                  0.00    139.27     56.88      0.00
  275                  0.00    138.50     55.68      0.00
  River           -13173.98    220.00      0.00      0.00  Reservoir
  Lake                 0.00    167.00      0.00      0.00  Reservoir
  1                   55.88    145.01      5.68      0.00  Tank
  2                 -499.50    139.83     10.11      0.00  Tank
  3                 1957.98    158.06     12.59      0.00  Tank
   
   
  Link Results at 0:05:00 hrs:
  ----------------------------------------------
                       Flow  Velocity  Headloss
  Link                  gpm       fps   /1000ft
  ----------------------------------------------
  20               -1957.98      0.08      0.00
  40                 -55.88      0.00      0.00
  50                 499.50      0.02      0.00
  60               13173.98      9.34      8.95
  101                  0.00      0.00      0.00
  103                147.26      0.23      0.02
  105               -449.28      1.27      0.58
  107                  6.37      0.02      0.00
  109                -64.52      0.10      0.00
  111               -432.45      1.23      0.54
  112                472.49      1.34      0.63
  113               -155.10      0.44      0.08
  114                108.60      0.69      0.30
  115                -80.50      0.51      0.17
  116                -78.32      0.22      0.02
  117                670.90      1.90      1.21
  119               -744.43      2.11      1.47
  120               1220.90      3.46      3.67
  121               1090.21      3.09      2.97
  122                381.58      2.44      3.07
  123              10053.21      4.56      1.81
  125              13173.98      5.98      2.98
  129               2673.00      1.90      0.54
  131               2372.06      1.68      0.43
  133              -1957.98      2.00      0.73
  135                386.00      0.27      0.01
  137                 67.97      0.11      0.00
  145                318.03      2.03      2.19
  147                308.66      1.97      2.07
  149               -616.88      3.94      7.47
  151               -607.02      3.87      7.25
  153                323.88      0.92      0.31
  155                367.81      1.04      0.40
  159               -381.41      1.08      0.43
  161               -424.45      2.71      3.74
  163               -158.20      0.45      0.08
  169                228.43      1.46      1.19
  171                495.97      1.41      0.69
  173               8056.29      3.66      1.20
  175               7973.95      3.62      1.18
  177               7908.25      3.59      1.16
  179               7614.09      3.46      1.08
  180                  4.13      0.01      0.00
  181                  4.13      0.01      0.00
  183               7369.56      3.34      1.02
  185                -23.15      0.15      0.02
  186                317.68      2.03      2.18
  187               6697.40      3.04      0.85
  189               5022.57      2.28      0.50
  191              -1612.28      1.14      0.21
  193              -1441.79      1.02      0.17
  195                296.00      0.84      0.27
  197                203.51      0.58      0.13
  199                147.63      0.42      0.07
  201                -55.88      0.16      0.01
  202                573.64      3.66      6.53
  203                296.74      1.89      1.93
  204                573.64      1.63      0.91
  205                317.68      0.90      0.30
  207                149.12      0.42      0.07
  209                199.84      1.28      0.93
  211                649.00      1.84      1.14
  213                117.84      0.33      0.05
  215                 -2.94      0.01      0.00
  217               -305.69      0.87      0.28
  219               -269.04      0.76      0.22
  221                269.04      1.72      1.61
  223                -57.64      0.16      0.01
  225                -30.54      0.09      0.00
  229               5022.57      3.56      1.48
  231               4708.36      3.34      1.31
  233               4764.31      3.38      1.56
  235                124.49      0.35      0.05
  237                476.71      1.35      0.64
  238                357.00      1.01      0.38
  239                 -9.38      0.03      0.00
  240                357.00      1.01      0.38
  241                357.00      1.01      0.38
  243                355.62      0.57      0.09
  245                345.59      0.55      0.09
  247                287.04      0.46      0.06
  249                140.46      0.22      0.02
  251                 65.70      0.14      0.01
  257                 36.25      0.10      0.01
  261                 36.38      0.23      0.04
  263                 26.20      0.07      0.00
  269                 -3.76      0.01      0.00
  271                 91.87      0.59      0.22
  273               -120.44      0.34      0.05
  275                -67.42      0.19      0.02
  277                  6.90      0.02      0.00
  281                -74.32      0.30      0.05
  283               -123.95      0.35      0.05
  285                 31.58      0.09      0.00
  287               -217.81      0.89      0.37
  289                499.50      2.04      1.70
  291                 86.69      0.35      0.07
  293                130.79      0.83      0.42
  295                -92.37      0.26      0.03
  297                512.27      3.27      5.29
  299                246.19      1.57      1.36
  301                246.19      1.57      1.36
  303                266.08      1.70      1.57
  305                158.63      0.45      0.08
  307                424.71      1.20      0.52
  309                225.42      1.44      1.16
  311               -228.36      0.65      0.16
  313                523.50      1.49      0.76
  315              -1737.79      1.23      0.24
  317                117.50      0.75      0.35
  319                  6.99      0.02      0.00
  321               7594.98      3.45      1.07
  323               -126.88      0.36      0.06
  325                125.51      0.80      0.39
  329              13173.98      5.98      3.02
  330                  0.00      0.00      0.00
  333                 -0.00      0.00      0.00
  10                   0.00      0.00      0.00  Pump
  335              13173.98      0.00    -93.30  Pump
   
   
  Node Results at 0:10:00 hrs:
  --------------------------------------------------------
                     Demand      Head  Pressure  Chemical
  Node                  gpm        ft       psi      mg/L
  --------------------------------------------------------
  10                   0.00    143.69     -1.43      0.00
  15                 607.02    125.99     40.73      0.00
  20                   0.00    158.12     12.62      0.00
  35                1441.79    145.03     57.43      0.00
  40                   0.00    145.01      5.68      0.00
  50                   0.00    139.66     10.03      0.00
  60                   0.00    208.99     90.55      0.00
  601                  0.00    302.30    130.99      0.00
  61                   0.00    302.30    130.99      0.00
  101                302.02    143.69     44.06      0.00
  103                211.79    143.66     43.62      0.00
  105                215.24    145.15     50.55      0.00
  107                 86.88    145.15     53.36      0.00
  109                367.93    143.68     53.46      0.00
  111                225.68    144.75     58.39      0.00
  113                 31.82    144.89     61.91      0.00
  115                 82.84    145.49     56.97      0.00
  117                187.16    148.69     58.54      0.00
  119                280.05    156.94     67.14      0.00
  120                  0.00    154.26     66.84      0.00
  121                 66.19    160.56     70.44      0.00
  123                  0.00    165.03     66.74      0.00
  125                 72.50    160.07     64.59      0.00
  127                 28.08    158.69     44.50      0.00
  129                  0.00    158.68     46.66      0.00
  131                 67.97    158.65     66.14      0.00
  139                  9.37    152.65     52.71      0.00
  141                 15.66    148.40     62.57      0.00
  143                  9.86    137.95     61.72      0.00
  145                 43.93    149.50     64.35      0.00
  147                 13.59    150.37     57.14      0.00
  149                 43.04    150.75     58.39      0.00
  151                229.72    154.56     52.45      0.00
  153                 70.23    154.65     38.33      0.00
  157                 82.35    154.45     61.25      0.00
  159                 65.70    151.02     62.84      0.00
  161                 25.12    148.70     62.70      0.00
  163                 14.98    148.24     62.06      0.00
  164                  0.00    148.24     62.06      0.00
  166                  4.13    148.24     65.10      0.00
  167                 23.15    146.34     65.58      0.00
  169                  0.00    146.34     65.58      0.00
  171                 62.55    145.26     64.67      0.00
  173                  0.00    145.24     64.66      0.00
  177                 92.49    145.03     59.38      0.00
  179                  0.00    145.03     59.37      0.00
  181                  0.00    145.04     59.38      0.00
  183                  0.00    145.01     58.07      0.00
  184                  0.00    143.37     55.19      0.00
  185                 40.78    144.03     55.47      0.00
  187                  0.00    144.65     57.26      0.00
  189                171.59    145.11     61.14      0.00
  191                130.22    144.78     51.90      0.00
  193                113.38    144.92     55.00      0.00
  195                  0.00    145.00     56.11      0.00
  197                 27.09    144.76     52.76      0.00
  199                189.72    139.29     61.22      0.00
  201                 70.93    138.46     59.95      0.00
  203               4764.31    138.28     59.05      0.00
  204                  0.00    144.43     53.48      0.00
  205                103.92    139.25     51.24      0.00
  206                  0.00    138.30     59.49      0.00
  207                110.33    138.48     56.10      0.00
  208                  0.00    138.09     52.90      0.00
  209                  1.38    137.74     60.55      0.00
  211                 13.79    137.62     56.60      0.00
  213                 22.16    137.54     56.56      0.00
  215                146.58    137.27     56.45      0.00
  217                 38.51    137.25     56.87      0.00
  219                 65.70    137.23     57.73      0.00
  225                 36.25    137.24     56.00      0.00
  229                102.05    137.45     55.01      0.00
  231                 26.20    137.45     57.39      0.00
  237                 24.82    137.62     53.57      0.00
  239                 70.93    137.65     54.01      0.00
  241                  0.00    137.65     54.01      0.00
  243                  6.90    137.65     53.58      0.00
  247                111.90    137.67     51.85      0.00
  249                  0.00    137.67     51.85      0.00
  251                 38.41    137.71     46.67      0.00
  253                 86.69    138.07     44.23      0.00
  255                 64.22    138.14     48.16      0.00
  257                  0.00    150.84     57.99      0.00
  259                  0.00    150.37     54.32      0.00
  261                  0.00    148.64     64.40      0.00
  263                  0.00    148.46     64.33      0.00
  265                  0.00    146.94     63.67      0.00
  267                  0.00    145.11     53.78      0.00
  269                  0.00    145.61     63.09      0.00
  271                  0.00    145.10     60.27      0.00
  273                  0.00    139.25     56.87      0.00
  275                  0.00    138.48     55.67      0.00
  River           -13172.70    220.00      0.00      0.00  Reservoir
  Lake                 0.00    167.00      0.00      0.00  Reservoir
  1                   55.53    145.01      5.68      0.00  Tank
  2                 -488.37    139.66     10.03      0.00  Tank
  3                 1945.93    158.12     12.62      0.00  Tank
   
   
  Link Results at 0:10:00 hrs:
  ----------------------------------------------
                       Flow  Velocity  Headloss
  Link                  gpm       fps   /1000ft
  ----------------------------------------------
  20               -1945.93      0.08      0.00
  40                 -55.53      0.00      0.00
  50                 488.37      0.02      0.00
  60               13172.70      9.34      8.95
  101                  0.00      0.00      0.00
  103                147.60      0.24      0.02
  105               -449.62      1.28      0.58
  107                  6.57      0.02      0.00
  109                -64.19      0.10      0.00
  111               -432.12      1.23      0.54
  112                473.27      1.34      0.63
  113               -154.82      0.44      0.08
  114                108.86      0.69      0.30
  115                -80.30      0.51      0.17
  116                -77.77      0.22      0.02
  117                671.43      1.90      1.21
  119               -745.27      2.11      1.47
  120               1221.93      3.47      3.67
  121               1091.15      3.10      2.98
  122                381.93      2.44      3.07
  123              10063.25      4.57      1.81
  125              13172.70      5.98      2.98
  129               2661.33      1.89      0.53
  131               2360.23      1.67      0.42
  133              -1945.93      1.99      0.72
  135                386.22      0.27      0.01
  137                 67.97      0.11      0.00
  145                318.25      2.03      2.19
  147                308.88      1.97      2.07
  149               -616.88      3.94      7.47
  151               -607.02      3.87      7.25
  153                323.66      0.92      0.31
  155                367.59      1.04      0.40
  159               -381.18      1.08      0.42
  161               -424.22      2.71      3.73
  163               -158.36      0.45      0.08
  169                228.60      1.46      1.19
  171                495.58      1.41      0.69
  173               8065.69      3.66      1.20
  175               7983.35      3.62      1.18
  177               7917.65      3.59      1.16
  179               7623.29      3.46      1.08
  180                  4.13      0.01      0.00
  181                  4.13      0.01      0.00
  183               7378.61      3.35      1.02
  185                -23.15      0.15      0.02
  186                318.58      2.03      2.20
  187               6706.10      3.04      0.85
  189               5032.39      2.28      0.50
  191              -1611.16      1.14      0.21
  193              -1441.79      1.02      0.17
  195                295.10      0.84      0.26
  197                202.61      0.57      0.13
  199                147.08      0.42      0.07
  201                -55.53      0.16      0.01
  202                574.95      3.67      6.55
  203                297.14      1.90      1.93
  204                574.95      1.63      0.91
  205                318.58      0.90      0.30
  207                150.07      0.43      0.08
  209                199.93      1.28      0.93
  211                649.35      1.84      1.14
  213                118.65      0.34      0.05
  215                 -2.03      0.01      0.00
  217               -305.68      0.87      0.28
  219               -269.23      0.76      0.22
  221                269.23      1.72      1.61
  223                -56.81      0.16      0.01
  225                -29.71      0.08      0.00
  229               5032.39      3.57      1.49
  231               4717.37      3.35      1.32
  233               4764.31      3.38      1.56
  235                125.30      0.36      0.05
  237                478.45      1.36      0.65
  238                368.13      1.04      0.40
  239                  0.01      0.00      0.00
  240                368.13      1.04      0.40
  241                368.13      1.04      0.40
  243                366.75      0.59      0.10
  245                345.68      0.55      0.09
  247                287.04      0.46      0.06
  249                140.46      0.22      0.02
  251                 65.70      0.14      0.01
  257                 36.25      0.10      0.01
  261                 36.47      0.23      0.04
  263                 26.20      0.07      0.00
  269                  7.28      0.02      0.00
  271                 91.78      0.59      0.22
  273               -109.32      0.31      0.04
  275                -63.26      0.18      0.02
  277                  6.90      0.02      0.00
  281                -70.16      0.29      0.04
  283               -116.99      0.33      0.05
  285                 28.70      0.08      0.00
  287               -210.76      0.86      0.34
  289                488.37      1.99      1.63
  291                 86.69      0.35      0.07
  293                126.70      0.81      0.40
  295                -88.29      0.25      0.03
  297                512.71      3.27      5.30
  299                246.40      1.57      1.36
  301                246.40      1.57      1.36
  303                266.31      1.70      1.58
  305                158.72      0.45      0.08
  307                425.03      1.21      0.52
  309                225.57      1.44      1.16
  311               -227.61      0.65      0.16
  313                523.62      1.49      0.76
  315              -1736.89      1.23      0.24
  317                117.88      0.75      0.35
  319                  7.42      0.02      0.00
  321               7604.18      3.45      1.08
  323               -117.87      0.33      0.05
  325                125.73      0.80      0.39
  329              13172.70      5.98      3.02
  330                  0.00      0.00      0.00
  333                 -0.00      0.00      0.00
  10                   0.00      0.00      0.00  Pump
  335              13172.70      0.00    -93.31  Pump
   
   
  Node Results at 0:15:00 hrs:
  --------------------------------------------------------
                     Demand      Head  Pressure  Chemical
  Node                  gpm        ft       psi      mg/L
  --------------------------------------------------------
  10                   0.00    143.70     -1.43      0.00
  15                 607.02    126.03     40.74      0.00
  20                   0.00    158.19     12.65      0.00
  35                1441.79    145.04     57.43      0.00
  40                   0.00    145.02      5.68      0.00
  50                   0.00    139.49      9.96      0.00
  60                   0.00    208.99     90.56      0.00
  601                  0.00    302.31    130.99      0.00
  61                   0.00    302.31    130.99      0.00
  101                302.02    143.70     44.07      0.00
  103                211.79    143.68     43.62      0.00
  105                215.24    145.17     50.55      0.00
  107                 86.88    145.17     53.37      0.00
  109                367.93    143.69     53.47      0.00
  111                225.68    144.76     58.39      0.00
  113                 31.82    144.90     61.92      0.00
  115                 82.84    145.50     56.98      0.00
  117                187.16    148.71     58.54      0.00
  119                280.05    156.98     67.15      0.00
  120                  0.00    154.29     66.85      0.00
  121                 66.19    160.60     70.45      0.00
  123                  0.00    165.07     66.76      0.00
  125                 72.50    160.11     64.61      0.00
  127                 28.08    158.75     44.52      0.00
  129                  0.00    158.73     46.68      0.00
  131                 67.97    158.71     66.17      0.00
  139                  9.37    152.70     52.73      0.00
  141                 15.66    148.44     62.59      0.00
  143                  9.86    137.99     61.74      0.00
  145                 43.93    149.54     64.36      0.00
  147                 13.59    150.41     57.16      0.00
  149                 43.04    150.79     58.40      0.00
  151                229.72    154.59     52.47      0.00
  153                 70.23    154.69     38.34      0.00
  157                 82.35    154.47     61.26      0.00
  159                 65.70    151.04     62.85      0.00
  161                 25.12    148.72     62.71      0.00
  163                 14.98    148.25     62.07      0.00
  164                  0.00    148.25     62.07      0.00
  166                  4.13    148.25     65.10      0.00
  167                 23.15    146.35     65.58      0.00
  169                  0.00    146.35     65.58      0.00
  171                 62.55    145.27     64.68      0.00
  173                  0.00    145.24     64.67      0.00
  177                 92.49    145.04     59.38      0.00
  179                  0.00    145.03     59.38      0.00
  181                  0.00    145.05     59.38      0.00
  183                  0.00    145.02     58.07      0.00
  184                  0.00    143.37     55.19      0.00
  185                 40.78    144.03     55.48      0.00
  187                  0.00    144.66     57.26      0.00
  189                171.59    145.12     61.15      0.00
  191                130.22    144.79     51.90      0.00
  193                113.38    144.93     55.00      0.00
  195                  0.00    145.01     56.12      0.00
  197                 27.09    144.77     52.76      0.00
  199                189.72    139.28     61.22      0.00
  201                 70.93    138.44     59.94      0.00
  203               4764.31    138.26     59.04      0.00
  204                  0.00    144.44     53.49      0.00
  205                103.92    139.24     51.23      0.00
  206                  0.00    138.27     59.48      0.00
  207                110.33    138.46     56.09      0.00
  208                  0.00    138.05     52.89      0.00
  209                  1.38    137.68     60.52      0.00
  211                 13.79    137.56     56.57      0.00
  213                 22.16    137.47     56.53      0.00
  215                146.58    137.21     56.42      0.00
  217                 38.51    137.18     56.84      0.00
  219                 65.70    137.16     57.70      0.00
  225                 36.25    137.17     55.97      0.00
  229                102.05    137.38     54.98      0.00
  231                 26.20    137.38     57.36      0.00
  237                 24.82    137.55     53.54      0.00
  239                 70.93    137.57     53.98      0.00
  241                  0.00    137.57     53.98      0.00
  243                  6.90    137.57     53.54      0.00
  247                111.90    137.59     51.82      0.00
  249                  0.00    137.59     51.82      0.00
  251                 38.41    137.63     46.64      0.00
  253                 86.69    137.97     44.18      0.00
  255                 64.22    138.04     48.11      0.00
  257                  0.00    150.87     58.00      0.00
  259                  0.00    150.39     54.33      0.00
  261                  0.00    148.66     64.41      0.00
  263                  0.00    148.47     64.33      0.00
  265                  0.00    146.95     63.68      0.00
  267                  0.00    145.12     53.78      0.00
  269                  0.00    145.62     63.10      0.00
  271                  0.00    145.11     60.28      0.00
  273                  0.00    139.24     56.87      0.00
  275                  0.00    138.46     55.66      0.00
  River           -13171.43    220.00      0.00      0.00  Reservoir
  Lake                 0.00    167.00      0.00      0.00  Reservoir
  1                   55.36    145.02      5.68      0.00  Tank
  2                 -477.50    139.49      9.96      0.00  Tank
  3                 1933.96    158.19     12.65      0.00  Tank
   
   
  Link Results at 0:15:00 hrs:
  ----------------------------------------------
                       Flow  Velocity  Headloss
  Link                  gpm       fps   /1000ft
  ----------------------------------------------
  20               -1933.96      0.08      0.00
  40                 -55.36      0.00      0.00
  50                 477.50      0.02      0.00
  60               13171.43      9.34      8.94
  101                  0.00      0.00      0.00
  103                147.93      0.24      0.02
  105               -449.95      1.28      0.58
  107                  6.77      0.02      0.00
  109                -63.86      0.10      0.00
  111               -431.78      1.22      0.54
  112                474.05      1.34      0.64
  113               -154.53      0.44      0.08
  114                109.12      0.70      0.30
  115                -80.10      0.51      0.17
  116                -77.23      0.22      0.02
  117                671.96      1.91      1.21
  119               -746.11      2.12      1.47
  120               1222.95      3.47      3.68
  121               1092.09      3.10      2.98
  122                382.29      2.44      3.08
  123              10073.22      4.57      1.81
  125              13171.43      5.98      2.98
  129               2649.74      1.88      0.53
  131               2348.48      1.67      0.42
  133              -1933.96      1.98      0.71
  135                386.44      0.27      0.01
  137                 67.97      0.11      0.00
  145                318.47      2.03      2.19
  147                309.11      1.97      2.08
  149               -616.88      3.94      7.47
  151               -607.02      3.87      7.25
  153                323.43      0.92      0.31
  155                367.37      1.04      0.40
  159               -380.96      1.08      0.42
  161               -424.00      2.71      3.73
  163               -158.52      0.45      0.08
  169                228.76      1.46      1.19
  171                495.20      1.40      0.69
  173               8075.02      3.67      1.20
  175               7992.67      3.63      1.18
  177               7926.98      3.60      1.16
  179               7632.43      3.46      1.08
  180                  4.13      0.01      0.00
  181                  4.13      0.01      0.00
  183               7387.59      3.35      1.02
  185                -23.15      0.15      0.02
  186                319.47      2.04      2.21
  187               6714.73      3.05      0.85
  189               5041.99      2.29      0.50
  191              -1610.19      1.14      0.21
  193              -1441.79      1.02      0.17
  195                294.36      0.84      0.26
  197                201.87      0.57      0.13
  199                146.50      0.42      0.07
  201                -55.36      0.16      0.01
  202                576.22      3.68      6.58
  203                297.53      1.90      1.93
  204                576.22      1.63      0.91
  205                319.47      0.91      0.31
  207                151.03      0.43      0.08
  209                200.01      1.28      0.93
  211                649.71      1.84      1.14
  213                119.46      0.34      0.05
  215                 -1.12      0.00      0.00
  217               -305.66      0.87      0.28
  219               -269.42      0.76      0.22
  221                269.42      1.72      1.61
  223                -55.98      0.16      0.01
  225                -28.89      0.08      0.00
  229               5041.99      3.58      1.49
  231               4726.22      3.35      1.32
  233               4764.31      3.38      1.56
  235                126.05      0.36      0.05
  237                480.11      1.36      0.65
  238                379.00      1.08      0.42
  239                  9.22      0.03      0.00
  240                379.00      1.08      0.42
  241                379.00      1.08      0.42
  243                377.61      0.60      0.10
  245                345.97      0.55      0.09
  247                287.04      0.46      0.06
  249                140.46      0.22      0.02
  251                 65.70      0.14      0.01
  257                 36.25      0.10      0.01
  261                 36.76      0.23      0.04
  263                 26.20      0.07      0.00
  269                 17.86      0.05      0.00
  271                 91.48      0.58      0.22
  273                -98.45      0.28      0.03
  275                -59.19      0.17      0.01
  277                  6.90      0.02      0.00
  281                -66.09      0.27      0.04
  283               -110.19      0.31      0.04
  285                 25.89      0.07      0.00
  287               -203.88      0.83      0.32
  289                477.50      1.95      1.57
  291                 86.69      0.35      0.07
  293                122.72      0.78      0.38
  295                -84.30      0.24      0.03
  297                513.15      3.28      5.31
  299                246.61      1.57      1.37
  301                246.61      1.57      1.37
  303                266.54      1.70      1.58
  305                158.82      0.45      0.08
  307                425.35      1.21      0.52
  309                225.73      1.44      1.16
  311               -226.85      0.64      0.16
  313                523.75      1.49      0.77
  315              -1736.15      1.23      0.24
  317                118.24      0.75      0.35
  319                  7.81      0.02      0.00
  321               7613.32      3.46      1.08
  323               -109.02      0.31      0.04
  325                125.95      0.80      0.39
  329              13171.43      5.98      3.02
  330                  0.00      0.00      0.00
  333                 -0.00      0.00      0.00
  10                   0.00      0.00      0.00  Pump
  335              13171.43      0.00    -93.32  Pump
   
   
  Node Results at 0:20:00 hrs:
  --------------------------------------------------------
                     Demand      Head  Pressure  Chemical
  Node                  gpm        ft       psi      mg/L
  --------------------------------------------------------
  10                   0.00    143.71     -1.42      0.00
  15                 607.02    126.07     40.76      0.00
  20                   0.00    158.25     12.67      0.00
  35                1441.79    145.05     57.43      0.00
  40                   0.00    145.03      5.69      0.00
  50                   0.00    139.33      9.89      0.00
  60                   0.00    208.99     90.56      0.00
  601                  0.00    302.33    131.00      0.00
  61                   0.00    302.33    131.00      0.00
  101                302.02    143.71     44.07      0.00
  103                211.79    143.69     43.63      0.00
  105                215.24    145.18     50.56      0.00
  107                 86.88    145.18     53.37      0.00
  109                367.93    143.70     53.47      0.00
  111                225.68    144.77     58.40      0.00
  113                 31.82    144.90     61.92      0.00
  115                 82.84    145.51     56.98      0.00
  117                187.16    148.73     58.55      0.00
  119                280.05    157.01     67.17      0.00
  120                  0.00    154.32     66.87      0.00
  121                 66.19    160.64     70.47      0.00
  123                  0.00    165.10     66.77      0.00
  125                 72.50    160.15     64.63      0.00
  127                 28.08    158.80     44.54      0.00
  129                  0.00    158.79     46.70      0.00
  131                 67.97    158.76     66.19      0.00
  139                  9.37    152.75     52.75      0.00
  141                 15.66    148.48     62.60      0.00
  143                  9.86    138.03     61.76      0.00
  145                 43.93    149.58     64.38      0.00
  147                 13.59    150.45     57.18      0.00
  149                 43.04    150.83     58.42      0.00
  151                229.72    154.63     52.48      0.00
  153                 70.23    154.72     38.36      0.00
  157                 82.35    154.50     61.27      0.00
  159                 65.70    151.06     62.85      0.00
  161                 25.12    148.73     62.71      0.00
  163                 14.98    148.26     62.08      0.00
  164                  0.00    148.26     62.08      0.00
  166                  4.13    148.26     65.11      0.00
  167                 23.15    146.36     65.58      0.00
  169                  0.00    146.36     65.59      0.00
  171                 62.55    145.27     64.68      0.00
  173                  0.00    145.25     64.67      0.00
  177                 92.49    145.04     59.38      0.00
  179                  0.00    145.04     59.38      0.00
  181                  0.00    145.05     59.38      0.00
  183                  0.00    145.03     58.07      0.00
  184                  0.00    143.38     55.19      0.00
  185                 40.78    144.04     55.48      0.00
  187                  0.00    144.67     57.27      0.00
  189                171.59    145.13     61.15      0.00
  191                130.22    144.79     51.91      0.00
  193                113.38    144.94     55.00      0.00
  195                  0.00    145.02     56.12      0.00
  197                 27.09    144.78     52.77      0.00
  199                189.72    139.26     61.21      0.00
  201                 70.93    138.43     59.94      0.00
  203               4764.31    138.24     59.03      0.00
  204                  0.00    144.44     53.49      0.00
  205                103.92    139.22     51.23      0.00
  206                  0.00    138.24     59.47      0.00
  207                110.33    138.44     56.08      0.00
  208                  0.00    138.01     52.87      0.00
  209                  1.38    137.62     60.50      0.00
  211                 13.79    137.49     56.54      0.00
  213                 22.16    137.40     56.50      0.00
  215                146.58    137.14     56.39      0.00
  217                 38.51    137.11     56.81      0.00
  219                 65.70    137.09     57.67      0.00
  225                 36.25    137.10     55.94      0.00
  229                102.05    137.31     54.95      0.00
  231                 26.20    137.31     57.33      0.00
  237                 24.82    137.48     53.51      0.00
  239                 70.93    137.50     53.94      0.00
  241                  0.00    137.50     53.94      0.00
  243                  6.90    137.50     53.51      0.00
  247                111.90    137.51     51.79      0.00
  249                  0.00    137.51     51.79      0.00
  251                 38.41    137.55     46.60      0.00
  253                 86.69    137.86     44.14      0.00
  255                 64.22    137.94     48.07      0.00
  257                  0.00    150.89     58.01      0.00
  259                  0.00    150.41     54.34      0.00
  261                  0.00    148.68     64.42      0.00
  263                  0.00    148.49     64.34      0.00
  265                  0.00    146.97     63.68      0.00
  267                  0.00    145.13     53.79      0.00
  269                  0.00    145.62     63.10      0.00
  271                  0.00    145.11     60.28      0.00
  273                  0.00    139.22     56.86      0.00
  275                  0.00    138.44     55.65      0.00
  River           -13170.17    220.00      0.00      0.00  Reservoir
  Lake                 0.00    167.00      0.00      0.00  Reservoir
  1                   55.40    145.03      5.69      0.00  Tank
  2                 -466.93    139.33      9.89      0.00  Tank
  3                 1922.08    158.25     12.67      0.00  Tank
   
   
  Link Results at 0:20:00 hrs:
  ----------------------------------------------
                       Flow  Velocity  Headloss
  Link                  gpm       fps   /1000ft
  ----------------------------------------------
  20               -1922.08      0.08      0.00
  40                 -55.40      0.00      0.00
  50                 466.93      0.02      0.00
  60               13170.17      9.34      8.94
  101                  0.00      0.00      0.00
  103                148.26      0.24      0.02
  105               -450.28      1.28      0.58
  107                  6.97      0.02      0.00
  109                -63.53      0.10      0.00
  111               -431.45      1.22      0.53
  112                474.82      1.35      0.64
  113               -154.25      0.44      0.08
  114                109.38      0.70      0.30
  115                -79.91      0.51      0.17
  116                -76.69      0.22      0.02
  117                672.49      1.91      1.22
  119               -746.95      2.12      1.48
  120               1223.96      3.47      3.69
  121               1093.02      3.10      2.99
  122                382.64      2.44      3.08
  123              10083.10      4.58      1.81
  125              13170.17      5.98      2.98
  129               2638.24      1.87      0.52
  131               2336.82      1.66      0.42
  133              -1922.08      1.96      0.71
  135                386.66      0.27      0.01
  137                 67.97      0.11      0.00
  145                318.69      2.03      2.20
  147                309.32      1.97      2.08
  149               -616.88      3.94      7.47
  151               -607.02      3.87      7.25
  153                323.21      0.92      0.31
  155                367.15      1.04      0.40
  159               -380.74      1.08      0.42
  161               -423.78      2.70      3.72
  163               -158.68      0.45      0.08
  169                228.91      1.46      1.19
  171                494.82      1.40      0.69
  173               8084.27      3.67      1.21
  175               8001.93      3.63      1.18
  177               7936.23      3.60      1.16
  179               7641.49      3.47      1.09
  180                  4.13      0.01      0.00
  181                  4.13      0.01      0.00
  183               7396.50      3.36      1.02
  185                -23.15      0.15      0.02
  186                320.34      2.04      2.22
  187               6723.28      3.05      0.86
  189               5051.33      2.29      0.50
  191              -1609.41      1.14      0.21
  193              -1441.79      1.02      0.17
  195                293.79      0.83      0.26
  197                201.30      0.57      0.13
  199                145.90      0.41      0.07
  201                -55.40      0.16      0.01
  202                577.46      3.69      6.61
  203                297.90      1.90      1.94
  204                577.46      1.64      0.92
  205                320.34      0.91      0.31
  207                152.00      0.43      0.08
  209                200.09      1.28      0.93
  211                650.06      1.84      1.14
  213                120.25      0.34      0.05
  215                 -0.20      0.00      0.00
  217               -305.63      0.87      0.28
  219               -269.62      0.76      0.22
  221                269.62      1.72      1.61
  223                -55.16      0.16      0.01
  225                -28.07      0.08      0.00
  229               5051.33      3.58      1.50
  231               4734.67      3.36      1.33
  233               4764.31      3.38      1.56
  235                126.94      0.36      0.06
  237                481.92      1.37      0.66
  238                389.57      1.11      0.44
  239                 17.99      0.05      0.00
  240                389.57      1.11      0.44
  241                389.57      1.11      0.44
  243                388.19      0.62      0.11
  245                346.44      0.55      0.09
  247                287.04      0.46      0.06
  249                140.46      0.22      0.02
  251                 65.70      0.14      0.01
  257                 36.25      0.10      0.01
  261                 37.23      0.24      0.04
  263                 26.20      0.07      0.00
  269                 27.97      0.08      0.00
  271                 91.02      0.58      0.22
  273                -87.87      0.25      0.03
  275                -55.23      0.16      0.01
  277                  6.90      0.02      0.00
  281                -62.13      0.25      0.04
  283               -103.57      0.29      0.04
  285                 23.16      0.07      0.00
  287               -197.19      0.81      0.30
  289                466.93      1.91      1.50
  291                 86.69      0.35      0.07
  293                118.83      0.76      0.35
  295                -80.42      0.23      0.02
  297                513.58      3.28      5.32
  299                246.82      1.58      1.37
  301                246.82      1.58      1.37
  303                266.76      1.70      1.58
  305                158.91      0.45      0.08
  307                425.67      1.21      0.52
  309                225.88      1.44      1.16
  311               -226.08      0.64      0.16
  313                523.89      1.49      0.77
  315              -1735.58      1.23      0.24
  317                118.56      0.76      0.35
  319                  8.38      0.02      0.00
  321               7622.38      3.46      1.08
  323               -100.57      0.29      0.04
  325                126.18      0.81      0.40
  329              13170.17      5.98      3.02
  330                  0.00      0.00      0.00
  333                 -0.00      0.00      0.00
  10                   0.00      0.00      0.00  Pump
  335              13170.17      0.00    -93.33  Pump
   
   
  Node Results at 0:25:00 hrs:
  --------------------------------------------------------
                     Demand      Head  Pressure  Chemical
  Node                  gpm        ft       psi      mg/L
  --------------------------------------------------------
  10                   0.00    143.72     -1.42      0.00
  15                 607.02    126.11     40.78      0.00
  20                   0.00    158.31     12.70      0.00
  35                1441.79    145.05     57.44      0.00
  40                   0.00    145.03      5.69      0.00
  50                   0.00    139.17      9.82      0.00
  60                   0.00    208.99     90.56      0.00
  601                  0.00    302.34    131.00      0.00
  61                   0.00    302.34    131.00      0.00
  101                302.02    143.72     44.08      0.00
  103                211.79    143.70     43.63      0.00
  105                215.24    145.19     50.56      0.00
  107                 86.88    145.19     53.38      0.00
  109                367.93    143.71     53.48      0.00
  111                225.68    144.78     58.40      0.00
  113                 31.82    144.91     61.92      0.00
  115                 82.84    145.52     56.99      0.00
  117                187.16    148.75     58.56      0.00
  119                280.05    157.04     67.18      0.00
  120                  0.00    154.35     66.88      0.00
  121                 66.19    160.68     70.49      0.00
  123                  0.00    165.14     66.79      0.00
  125                 72.50    160.20     64.65      0.00
  127                 28.08    158.86     44.57      0.00
  129                  0.00    158.84     46.73      0.00
  131                 67.97    158.81     66.21      0.00
  139                  9.37    152.79     52.77      0.00
  141                 15.66    148.52     62.62      0.00
  143                  9.86    138.07     61.78      0.00
  145                 43.93    149.62     64.40      0.00
  147                 13.59    150.49     57.19      0.00
  149                 43.04    150.87     58.44      0.00
  151                229.72    154.66     52.50      0.00
  153                 70.23    154.76     38.37      0.00
  157                 82.35    154.53     61.28      0.00
  159                 65.70    151.08     62.86      0.00
  161                 25.12    148.74     62.72      0.00
  163                 14.98    148.28     62.08      0.00
  164                  0.00    148.28     62.08      0.00
  166                  4.13    148.28     65.11      0.00
  167                 23.15    146.37     65.59      0.00
  169                  0.00    146.37     65.59      0.00
  171                 62.55    145.28     64.68      0.00
  173                  0.00    145.25     64.67      0.00
  177                 92.49    145.05     59.38      0.00
  179                  0.00    145.05     59.38      0.00
  181                  0.00    145.06     59.39      0.00
  183                  0.00    145.03     58.08      0.00
  184                  0.00    143.38     55.19      0.00
  185                 40.78    144.04     55.48      0.00
  187                  0.00    144.67     57.27      0.00
  189                171.59    145.14     61.16      0.00
  191                130.22    144.80     51.91      0.00
  193                113.38    144.95     55.01      0.00
  195                  0.00    145.03     56.13      0.00
  197                 27.09    144.79     52.77      0.00
  199                189.72    139.25     61.20      0.00
  201                 70.93    138.41     59.93      0.00
  203               4764.31    138.22     59.03      0.00
  204                  0.00    144.45     53.49      0.00
  205                103.92    139.21     51.22      0.00
  206                  0.00    138.21     59.45      0.00
[...]
  219                 56.61    141.69     59.66      0.00
  225                 31.24    141.70     57.93      0.00
  229                 87.93    141.63     56.82      0.00
  231                 22.58    141.62     59.20      0.00
  237                 21.39    141.66     55.32      0.00
  239                 61.12    141.62     55.73      0.00
  241                  0.00    141.62     55.73      0.00
  243                  5.95    141.62     55.30      0.00
  247                 96.42    141.61     53.56      0.00
  249                  0.00    141.61     53.56      0.00
  251                 33.10    141.61     48.36      0.00
  253                 74.69    141.56     45.74      0.00
  255                 55.33    141.61     49.66      0.00
  257                  0.00    154.89     59.75      0.00
  259                  0.00    154.49     56.11      0.00
  261                  0.00    153.05     66.32      0.00
  263                  0.00    152.90     66.25      0.00
  265                  0.00    151.36     65.59      0.00
  267                  0.00    149.87     55.84      0.00
  269                  0.00    150.24     65.10      0.00
  271                  0.00    149.75     62.29      0.00
  273                  0.00    144.79     59.27      0.00
  275                  0.00    144.15     58.13      0.00
  River           -13130.27    220.00      0.00      0.00  Reservoir
  Lake                 0.00    167.00      0.00      0.00  Reservoir
  1                 -250.42    149.92      7.81      0.00  Tank
  2                 -158.42    141.80     10.96      0.00  Tank
  3                 1225.14    161.89     14.25      0.00  Tank
   
   
  Link Results at 23:55:00 hrs:
  ----------------------------------------------
                       Flow  Velocity  Headloss
  Link                  gpm       fps   /1000ft
  ----------------------------------------------
  20               -1225.14      0.05      0.00
  40                 250.42      0.01      0.00
  50                 158.42      0.01      0.00
  60               13130.27      9.31      8.89
  101                  0.00      0.00      0.00
  103                144.89      0.23      0.02
  105               -405.12      1.15      0.48
  107                 16.22      0.05      0.00
  109                -37.60      0.06      0.00
  111               -354.62      1.01      0.37
  112                448.89      1.27      0.58
  113               -121.30      0.34      0.05
  114                106.92      0.68      0.29
  115                -58.64      0.37      0.10
  116                -41.79      0.12      0.01
  117                606.79      1.72      1.00
  119               -685.82      1.95      1.26
  120               1108.68      3.15      3.07
  121                989.18      2.81      2.48
  122                345.20      2.20      2.55
  123               9069.16      4.12      1.49
  125              11226.58      5.10      2.21
  129               1755.18      1.24      0.25
  131               1510.94      1.07      0.19
  133              -1225.14      1.25      0.31
  135                261.60      0.19      0.01
  137                 58.57      0.09      0.00
  145                203.03      1.30      0.95
  147                194.97      1.24      0.88
  149               -301.21      1.92      1.98
  151               -292.72      1.87      1.88
  153                119.74      0.34      0.05
  155                157.60      0.45      0.08
  159               -169.31      0.48      0.09
  161               -206.40      1.32      0.98
  163               -121.26      0.34      0.05
  169                181.77      1.16      0.78
  171                283.07      0.80      0.24
  173               7436.11      3.38      1.03
  175               7365.15      3.34      1.01
  177               7308.55      3.32      1.00
  179               7044.84      3.20      0.93
  180                  3.56      0.01      0.00
  181                  3.56      0.01      0.00
  183               6826.05      3.10      0.88
  185                -19.95      0.13      0.01
  186                307.97      1.97      2.06
  187               6223.17      2.82      0.74
  189               4598.56      2.09      0.42
  191              -1570.71      1.11      0.20
  193              -1799.76      1.28      0.26
  195               -105.21      0.30      0.04
  197               -184.90      0.52      0.11
  199                 65.52      0.19      0.02
  201                250.42      0.71      0.20
  202                532.09      3.40      5.68
  203                259.27      1.65      1.50
  204                532.09      1.51      0.79
  205                307.97      0.87      0.29
  207                193.74      0.55      0.12
  209                170.04      1.09      0.69
  211                582.94      1.65      0.93
  213                137.93      0.39      0.06
  215                 52.53      0.15      0.01
  217               -252.36      0.72      0.20
  219               -242.06      0.69      0.18
  221                242.06      1.55      1.32
  223                 -2.23      0.01      0.00
  225                 21.12      0.06      0.00
  229               4598.56      3.26      1.26
  231               4283.55      3.04      1.10
  233               4141.89      2.94      1.20
  235                151.54      0.43      0.08
  237                487.38      1.38      0.67
  238                579.57      1.64      0.92
  239                187.26      0.53      0.11
  240                579.57      1.64      0.92
  241                579.57      1.64      0.92
  243                578.38      0.92      0.23
  245                337.28      0.54      0.08
  247                247.33      0.39      0.05
  249                121.03      0.19      0.01
  251                 56.61      0.12      0.01
  257                 31.24      0.09      0.00
  261                 70.85      0.45      0.14
  263                 22.58      0.06      0.00
  269                229.22      0.65      0.17
  271                 39.65      0.25      0.05
  273                168.19      0.48      0.09
  275                 43.78      0.12      0.01
  277                  5.95      0.02      0.00
  281                 37.84      0.15      0.01
  283                 63.29      0.18      0.02
  285                -43.11      0.12      0.01
  287                -15.47      0.06      0.00
  289                158.42      0.65      0.20
  291                 74.69      0.31      0.05
  293                 12.92      0.08      0.01
  295                 20.17      0.06      0.00
  297                464.71      2.97      4.42
  299                223.29      1.43      1.14
  301                223.29      1.43      1.14
  303                241.42      1.54      1.31
  305                142.09      0.40      0.07
  307                383.51      1.09      0.43
  309                202.32      1.29      0.95
  311               -149.79      0.42      0.08
  313                459.10      1.30      0.60
  315              -1694.55      1.20      0.23
  317                106.71      0.68      0.29
  319                 44.83      0.13      0.01
  321               7028.37      3.19      0.93
  323                 80.55      0.23      0.02
  325                123.84      0.79      0.38
  329              13130.27      5.96      3.00
  330                  0.00      0.00      0.00
  333                 -0.00      0.00      0.00
  10                   0.00      0.00      0.00  Pump
  335              13130.27      0.00    -93.69  Pump
   
   
  Node Results at 24:00:00 hrs:
  --------------------------------------------------------
                     Demand      Head  Pressure  Chemical
  Node                  gpm        ft       psi      mg/L
  --------------------------------------------------------
  10                   0.00    148.10      0.48      0.00
  15                 607.02    129.94     42.44      0.00
  20                   0.00    161.93     14.27      0.00
  35                1441.79    149.59     59.40      0.00
  40                   0.00    149.90      7.80      0.00
  50                   0.00    141.75     10.94      0.00
  60                   0.00    209.19     90.64      0.00
  601                  0.00    303.65    131.57      0.00
  61                   0.00    303.65    131.57      0.00
  101                302.02    148.10     45.97      0.00
  103                211.79    148.08     45.53      0.00
  105                215.24    149.53     52.44      0.00
  107                 86.88    149.53     55.26      0.00
  109                367.93    148.09     55.37      0.00
  111                225.68    149.19     60.31      0.00
  113                 31.82    149.34     63.84      0.00
  115                 82.84    149.89     58.88      0.00
  117                187.16    152.97     60.39      0.00
  119                280.05    160.99     68.89      0.00
  120                  0.00    158.38     68.63      0.00
  121                 66.19    164.49     72.14      0.00
  123                  0.00    168.87     68.41      0.00
  125                 72.50    163.97     66.28      0.00
  127                 28.08    162.53     46.16      0.00
  129                  0.00    162.52     48.32      0.00
  131                 67.97    162.49     67.81      0.00
  139                  9.37    156.56     54.40      0.00
  141                 15.66    152.35     64.28      0.00
  143                  9.86    141.90     63.44      0.00
  145                 43.93    153.47     66.06      0.00
  147                 13.59    154.35     58.86      0.00
  149                 43.04    154.73     60.11      0.00
  151                229.72    158.56     54.19      0.00
  153                 70.23    158.66     40.06      0.00
  157                 82.35    158.59     63.04      0.00
  159                 65.70    155.29     64.69      0.00
  161                 25.12    153.06     64.59      0.00
  163                 14.98    152.62     63.96      0.00
  164                  0.00    152.62     63.96      0.00
  166                  4.13    152.62     67.00      0.00
  167                 23.15    150.80     67.51      0.00
  169                  0.00    150.80     67.51      0.00
  171                 62.55    149.76     66.62      0.00
  173                  0.00    149.73     66.61      0.00
  177                 92.49    149.60     61.35      0.00
  179                  0.00    149.60     61.35      0.00
  181                  0.00    149.60     61.35      0.00
  183                  0.00    149.57     60.04      0.00
  184                  0.00    147.80     57.11      0.00
  185                 40.78    148.49     57.41      0.00
  187                  0.00    149.12     59.20      0.00
  189                171.59    149.62     63.10      0.00
  191                130.22    149.24     53.83      0.00
  193                113.38    149.39     56.93      0.00
  195                  0.00    149.47     58.05      0.00
  197                 27.09    149.21     54.69      0.00
  199                189.72    143.50     63.04      0.00
  201                 70.93    142.63     61.76      0.00
  203               4764.31    142.44     60.85      0.00
  204                  0.00    148.90     55.42      0.00
  205                103.92    143.44     53.05      0.00
  206                  0.00    142.23     61.19      0.00
  207                110.33    142.56     57.87      0.00
  208                  0.00    141.84     54.53      0.00
  209                  1.38    141.18     62.04      0.00
  211                 13.79    140.96     58.05      0.00
  213                 22.16    140.87     58.00      0.00
  215                146.58    140.60     57.89      0.00
  217                 38.51    140.57     58.31      0.00
  219                 65.70    140.56     59.17      0.00
  225                 36.25    140.57     57.44      0.00
  229                102.05    140.70     56.41      0.00
  231                 26.20    140.69     58.80      0.00
  237                 24.82    140.82     54.95      0.00
  239                 70.93    140.82     55.38      0.00
  241                  0.00    140.82     55.38      0.00
  243                  6.90    140.82     54.95      0.00
  247                111.90    140.82     53.22      0.00
  249                  0.00    140.82     53.22      0.00
  251                 38.41    140.83     48.02      0.00
  253                 86.69    140.90     45.46      0.00
  255                 64.22    140.98     49.39      0.00
  257                  0.00    155.06     59.82      0.00
  259                  0.00    154.60     56.16      0.00
  261                  0.00    152.92     66.26      0.00
  263                  0.00    152.74     66.18      0.00
  265                  0.00    151.37     65.59      0.00
  267                  0.00    149.62     55.73      0.00
  269                  0.00    150.10     65.04      0.00
  271                  0.00    149.64     62.24      0.00
  273                  0.00    143.44     58.69      0.00
  275                  0.00    142.63     57.47      0.00
  River           -13042.70    220.00      0.00      0.00  Reservoir
  Lake                 0.00    167.00      0.00      0.00  Reservoir
  1                 -285.56    149.90      7.80      0.00  Tank
  2                 -339.12    141.75     10.94      0.00  Tank
  3                 2007.77    161.93     14.27      0.00  Tank
   
   
  Link Results at 24:00:00 hrs:
  ----------------------------------------------
                       Flow  Velocity  Headloss
  Link                  gpm       fps   /1000ft
  ----------------------------------------------
  20               -2007.77      0.08      0.00
  40                 285.56      0.01      0.00
  50                 339.12      0.01      0.00
  60               13042.70      9.25      8.78
  101                  0.00      0.00      0.00
  103                141.59      0.23      0.02
  105               -443.61      1.26      0.56
  107                  2.94      0.01      0.00
  109                -70.20      0.11      0.00
  111               -438.13      1.24      0.55
  112                459.32      1.30      0.60
  113               -161.81      0.46      0.09
  114                103.76      0.66      0.28
  115                -83.94      0.54      0.19
  116                -89.87      0.25      0.03
  117                661.79      1.88      1.18
  119               -729.86      2.07      1.41
  120               1203.30      3.41      3.57
  121               1074.08      3.05      2.89
  122                375.50      2.40      2.98
  123               9881.99      4.49      1.75
  125              13042.70      5.92      2.92
  129               2719.01      1.93      0.55
  131               2420.20      1.72      0.45
  133              -2007.77      2.05      0.77
  135                384.35      0.27      0.01
  137                 67.97      0.11      0.00
  145                316.38      2.02      2.17
  147                307.01      1.96      2.05
  149               -616.88      3.94      7.47
  151               -607.02      3.87      7.25
  153                325.53      0.92      0.32
  155                369.46      1.05      0.40
  159               -383.05      1.09      0.43
  161               -426.10      2.72      3.76
  163               -156.08      0.44      0.08
  169                226.31      1.44      1.17
  171                499.74      1.42      0.70
  173               7898.90      3.59      1.15
  175               7816.56      3.55      1.13
  177               7750.86      3.52      1.12
  179               7460.53      3.39      1.04
  180                  4.13      0.01      0.00
  181                  4.13      0.01      0.00
  183               7220.70      3.28      0.98
  185                -23.15      0.15      0.02
  186                320.88      2.05      2.23
  187               6565.46      2.98      0.82
  189               5164.13      2.34      0.53
  191              -1338.78      0.95      0.15
  193              -1441.79      1.02      0.17
  195                 15.56      0.04      0.00
  197                -76.93      0.22      0.02
  199                208.63      0.59      0.14
  201                285.56      0.81      0.25
  202                592.46      3.78      6.93
  203                312.36      1.99      2.12
  204                592.46      1.68      0.96
  205                320.88      0.91      0.31
  207                103.74      0.29      0.04
  209                208.30      1.33      1.00
  211                632.09      1.79      1.08
  213                112.58      0.32      0.04
  215                -29.89      0.08      0.00
  217               -312.57      0.89      0.29
  219               -265.21      0.75      0.22
  221                265.21      1.69      1.56
  223                -69.77      0.20      0.02
  225                -42.67      0.12      0.01
  229               5164.13      3.66      1.56
  231               4829.66      3.43      1.38
  233               4764.31      3.38      1.56
  235                144.75      0.41      0.07
  237                512.21      1.45      0.73
  238                517.38      1.47      0.75
  239                115.49      0.33      0.05
  240                517.38      1.47      0.75
  241                517.38      1.47      0.75
  243                515.99      0.82      0.18
  245                361.28      0.58      0.09
  247                287.04      0.46      0.06
  249                140.46      0.22      0.02
  251                 65.70      0.14      0.01
  257                 36.25      0.10      0.01
  261                 52.07      0.33      0.08
  263                 26.20      0.07      0.00
  269                140.93      0.40      0.07
  271                 76.18      0.49      0.16
  273                 39.93      0.11      0.01
  275                 -7.36      0.02      0.00
  277                  6.90      0.02      0.00
  281                -14.26      0.06      0.00
  283                -23.64      0.07      0.00
  285                 -9.72      0.03      0.00
  287               -116.45      0.48      0.11
  289                339.12      1.39      0.83
  291                 86.69      0.35      0.07
  293                 71.77      0.46      0.14
  295                -33.36      0.09      0.00
  297                504.73      3.22      5.15
  299                242.58      1.55      1.33
  301                242.58      1.55      1.33
  303                262.14      1.67      1.53
  305                157.06      0.45      0.08
  307                419.21      1.19      0.51
  309                220.72      1.41      1.11
  311               -250.61      0.71      0.20
  313                513.52      1.46      0.74
  315              -1457.35      1.03      0.17
  317                121.07      0.77      0.37
  319                 23.68      0.07      0.00
  321               7441.42      3.38      1.03
  323                 -5.58      0.02      0.00
  325                118.57      0.76      0.35
  329              13042.70      5.92      2.96
  330                  0.00      0.00      0.00
  333                 -0.00      0.00      0.00
  10                   0.00      0.00      0.00  Pump
  335              13042.70      0.00    -94.46  Pump
   
  Analysis ended Wed May 06 17:55:00 2020
