  Page 1                                    Wed May 06 18:01:47 2020

  ******************************************************************
  *                           E P A N E T                          *
  *                   Hydraulic and Water Quality                  *
  *                   Analysis for Pipe Networks                   *
  *                         Version 2.00.12                        *
  ******************************************************************
  
  Analysis begun Wed May 06 18:01:47 2020

   
  Hydraulic Status:
  -----------------------------------------------------------------------
     0:00:00: Balanced after 6 trials
     0:00:00: Reservoir River is emptying
     0:00:00: Reservoir Lake is closed
     0:00:00: Tank 1 is filling at 13.10 ft
     0:00:00: Tank 2 is emptying at 23.50 ft
     0:00:00: Tank 3 is filling at 29.00 ft
   
     0:05:00: Balanced after 2 trials
   
     0:10:00: Balanced after 2 trials
   
     0:15:00: Balanced after 2 trials
   
     0:20:00: Balanced after 2 trials
   
     0:25:00: Balanced after 2 trials
   
     0:30:00: Balanced after 2 trials
   
     0:35:00: Balanced after 2 trials
   
     0:40:00: Balanced after 2 trials
   
     0:45:00: Balanced after 2 trials
   
     0:50:00: Balanced after 2 trials
   
     0:55:00: Balanced after 2 trials
   
     1:00:00: Pump 10 changed by timer control
     1:00:00: Balanced after 7 trials
     1:00:00: Reservoir Lake is emptying
     1:00:00: Pump 10 changed from closed to open
   
     1:05:00: Balanced after 2 trials
   
     1:10:00: Balanced after 2 trials
   
     1:15:00: Balanced after 2 trials
   
     1:20:00: Balanced after 2 trials
   
     1:25:00: Balanced after 2 trials
   
     1:30:00: Balanced after 2 trials
   
     1:35:00: Balanced after 2 trials
   
     1:40:00: Balanced after 2 trials
   
     1:45:00: Balanced after 2 trials
   
     1:50:00: Balanced after 2 trials
   
     1:55:00: Balanced after 2 trials
   
     2:00:00: Balanced after 3 trials
   
     2:05:00: Balanced after 1 trials
   
     2:10:00: Balanced after 1 trials
   
     2:15:00: Balanced after 1 trials
   
     2:20:00: Balanced after 1 trials
   
     2:25:00: Balanced after 1 trials
   
     2:30:00: Balanced after 1 trials
   
     2:35:00: Balanced after 1 trials
   
     2:40:00: Balanced after 1 trials
   
     2:45:00: Balanced after 1 trials
   
     2:50:00: Balanced after 1 trials
   
     2:55:00: Balanced after 1 trials
   
     3:00:00: Balanced after 3 trials
     3:00:00: Tank 2 is filling at 20.83 ft
   
     3:05:00: Balanced after 1 trials
   
     3:10:00: Balanced after 1 trials
   
     3:15:00: Balanced after 1 trials
   
     3:20:00: Balanced after 1 trials
   
     3:25:00: Balanced after 1 trials
   
     3:30:00: Balanced after 1 trials
   
     3:35:00: Balanced after 1 trials
   
     3:40:00: Balanced after 1 trials
   
     3:45:00: Balanced after 1 trials
   
     3:50:00: Balanced after 1 trials
   
     3:55:00: Balanced after 1 trials
   
     4:00:00: Balanced after 3 trials
   
     4:05:00: Balanced after 1 trials
   
     4:10:00: Balanced after 1 trials
   
     4:15:00: Balanced after 1 trials
   
     4:20:00: Balanced after 1 trials
   
     4:25:00: Balanced after 1 trials
   
     4:30:00: Balanced after 1 trials
   
     4:34:19: Pump 335 changed by Tank 1 control
     4:34:19: Pipe 330 changed by Tank 1 control
     4:34:19: Balanced after 4 trials
     4:34:19: Pipe 330 changed from closed to open
     4:34:19: Pump 335 changed from open to closed
   
     4:35:00: Balanced after 1 trials
   
     4:40:00: Balanced after 2 trials
   
     4:45:00: Balanced after 2 trials
   
     4:50:00: Balanced after 2 trials
   
     4:55:00: Balanced after 2 trials
   
     5:00:00: Balanced after 3 trials
     5:00:00: Tank 3 is emptying at 34.58 ft
   
     5:05:00: Balanced after 2 trials
   
     5:10:00: Balanced after 2 trials
   
     5:15:00: Balanced after 2 trials
   
     5:20:00: Balanced after 2 trials
     5:20:00: Tank 3 is filling at 34.57 ft
   
     5:25:00: Balanced after 2 trials
   
     5:30:00: Balanced after 2 trials
   
     5:35:00: Balanced after 2 trials
   
     5:40:00: Balanced after 2 trials
   
     5:45:00: Balanced after 2 trials
   
     5:50:00: Balanced after 2 trials
   
     5:55:00: Balanced after 2 trials
   
     6:00:00: Balanced after 3 trials
   
     6:05:00: Balanced after 1 trials
   
     6:10:00: Balanced after 1 trials
   
     6:15:00: Balanced after 1 trials
   
     6:20:00: Balanced after 1 trials
   
     6:25:00: Balanced after 1 trials
   
     6:30:00: Balanced after 1 trials
   
     6:35:00: Balanced after 1 trials
   
     6:40:00: Balanced after 1 trials
   
     6:45:00: Balanced after 1 trials
   
     6:50:00: Balanced after 1 trials
   
     6:55:00: Balanced after 1 trials
   
     7:00:00: Balanced after 3 trials
   
     7:05:00: Balanced after 1 trials
   
     7:10:00: Balanced after 1 trials
   
     7:15:00: Balanced after 1 trials
   
     7:20:00: Balanced after 1 trials
   
     7:25:00: Balanced after 1 trials
   
     7:30:00: Balanced after 1 trials
   
     7:35:00: Balanced after 1 trials
   
     7:40:00: Balanced after 1 trials
   
     7:45:00: Balanced after 1 trials
   
     7:50:00: Balanced after 1 trials
   
     7:55:00: Balanced after 1 trials
   
     8:00:00: Balanced after 3 trials
   
     8:05:00: Balanced after 1 trials
   
     8:10:00: Balanced after 1 trials
   
     8:15:00: Balanced after 1 trials
   
     8:20:00: Balanced after 1 trials
   
     8:25:00: Balanced after 1 trials
   
     8:30:00: Balanced after 1 trials
   
     8:35:00: Balanced after 1 trials
   
     8:40:00: Balanced after 1 trials
   
     8:45:00: Balanced after 1 trials
   
     8:50:00: Balanced after 1 trials
   
     8:55:00: Balanced after 1 trials
   
     9:00:00: Balanced after 3 trials
     9:00:00: Tank 1 is emptying at 22.36 ft
     9:00:00: Tank 3 is emptying at 35.48 ft
   
     9:05:00: Balanced after 1 trials
   
     9:10:00: Balanced after 1 trials
   
     9:15:00: Balanced after 1 trials
   
     9:20:00: Balanced after 1 trials
   
     9:25:00: Balanced after 1 trials
   
     9:30:00: Balanced after 1 trials
   
     9:35:00: Balanced after 1 trials
   
     9:40:00: Balanced after 1 trials
   
     9:45:00: Balanced after 1 trials
   
     9:50:00: Balanced after 1 trials
   
     9:55:00: Balanced after 1 trials
   
    10:00:00: Balanced after 3 trials
    10:00:00: Tank 1 is filling at 22.31 ft
   
    10:05:00: Balanced after 2 trials
   
    10:10:00: Balanced after 2 trials
   
    10:15:00: Balanced after 2 trials
   
    10:20:00: Balanced after 2 trials
   
    10:25:00: Balanced after 2 trials
   
    10:30:00: Balanced after 2 trials
   
    10:35:00: Balanced after 2 trials
   
    10:40:00: Balanced after 2 trials
   
    10:45:00: Balanced after 2 trials
   
    10:50:00: Balanced after 2 trials
   
    10:55:00: Balanced after 2 trials
   
    11:00:00: Balanced after 3 trials
    11:00:00: Tank 1 is emptying at 22.48 ft
    11:00:00: Tank 2 is emptying at 28.01 ft
   
    11:05:00: Balanced after 1 trials
   
    11:10:00: Balanced after 1 trials
   
    11:15:00: Balanced after 1 trials
   
    11:20:00: Balanced after 1 trials
   
    11:25:00: Balanced after 1 trials
   
    11:30:00: Balanced after 1 trials
   
    11:35:00: Balanced after 1 trials
   
    11:40:00: Balanced after 1 trials
   
    11:45:00: Balanced after 1 trials
   
    11:50:00: Balanced after 1 trials
   
    11:55:00: Balanced after 1 trials
   
    12:00:00: Balanced after 3 trials
    12:00:00: Tank 2 is filling at 27.32 ft
   
    12:05:00: Balanced after 1 trials
   
    12:10:00: Balanced after 1 trials
   
    12:15:00: Balanced after 1 trials
   
    12:20:00: Balanced after 1 trials
   
    12:25:00: Balanced after 1 trials
   
    12:30:00: Balanced after 1 trials
   
    12:35:00: Balanced after 1 trials
   
    12:40:00: Balanced after 1 trials
   
    12:45:00: Balanced after 1 trials
   
    12:50:00: Balanced after 1 trials
   
    12:55:00: Balanced after 1 trials
   
    13:00:00: Balanced after 3 trials
    13:00:00: Tank 1 is filling at 21.70 ft
   
    13:05:00: Balanced after 2 trials
   
    13:10:00: Balanced after 2 trials
   
    13:15:00: Balanced after 2 trials
   
    13:20:00: Balanced after 2 trials
   
    13:25:00: Balanced after 2 trials
   
    13:30:00: Balanced after 2 trials
   
    13:35:00: Balanced after 2 trials
   
    13:40:00: Balanced after 2 trials
   
    13:45:00: Balanced after 2 trials
   
    13:50:00: Balanced after 2 trials
   
    13:55:00: Balanced after 2 trials
   
    14:00:00: Balanced after 3 trials
    14:00:00: Tank 3 is filling at 33.99 ft
   
    14:05:00: Balanced after 2 trials
   
    14:10:00: Balanced after 2 trials
   
    14:15:00: Balanced after 2 trials
   
    14:20:00: Balanced after 2 trials
   
    14:25:00: Balanced after 2 trials
   
    14:30:00: Balanced after 2 trials
   
    14:35:00: Balanced after 2 trials
   
    14:40:00: Balanced after 2 trials
   
    14:45:00: Balanced after 2 trials
   
    14:50:00: Balanced after 2 trials
   
    14:55:00: Balanced after 2 trials
   
    15:00:00: Pump 10 changed by timer control
    15:00:00: Balanced after 5 trials
    15:00:00: Reservoir Lake is closed
    15:00:00: Tank 1 is emptying at 22.91 ft
    15:00:00: Tank 3 is emptying at 34.03 ft
    15:00:00: Pump 10 changed from open to closed
   
    15:05:00: Balanced after 2 trials
   
    15:10:00: Balanced after 2 trials
   
    15:15:00: Balanced after 2 trials
    15:15:00: Tank 2 is closed at 29.06 ft
   
    15:20:00: Balanced after 2 trials
    15:20:00: Tank 2 is emptying at 29.06 ft
   
    15:25:00: Balanced after 2 trials
   
    15:30:00: Balanced after 2 trials
   
    15:35:00: Balanced after 2 trials
   
    15:40:00: Balanced after 2 trials
   
    15:45:00: Balanced after 2 trials
   
    15:50:00: Balanced after 2 trials
   
    15:55:00: Balanced after 2 trials
   
    16:00:00: Balanced after 3 trials
   
    16:05:00: Balanced after 2 trials
   
    16:10:00: Balanced after 2 trials
   
    16:15:00: Balanced after 1 trials
   
    16:20:00: Balanced after 1 trials
   
    16:25:00: Balanced after 1 trials
   
    16:30:00: Balanced after 1 trials
   
    16:35:00: Balanced after 1 trials
   
    16:40:00: Balanced after 1 trials
   
    16:45:00: Balanced after 1 trials
   
    16:50:00: Balanced after 1 trials
   
    16:55:00: Balanced after 1 trials
   
    17:00:00: Balanced after 3 trials
   
    17:05:00: Balanced after 1 trials
   
    17:10:00: Balanced after 1 trials
   
    17:15:00: Balanced after 1 trials
   
    17:20:00: Balanced after 1 trials
   
    17:25:00: Balanced after 1 trials
   
    17:30:00: Balanced after 1 trials
   
    17:35:00: Balanced after 1 trials
   
    17:40:00: Balanced after 1 trials
   
    17:45:00: Balanced after 1 trials
   
    17:50:00: Balanced after 1 trials
   
    17:55:00: Balanced after 1 trials
   
    18:00:00: Balanced after 3 trials
   
    18:05:00: Balanced after 1 trials
   
    18:10:00: Balanced after 1 trials
   
    18:15:00: Balanced after 1 trials
   
    18:20:00: Balanced after 1 trials
   
    18:25:00: Balanced after 1 trials
   
    18:30:00: Balanced after 1 trials
   
    18:35:00: Balanced after 1 trials
   
    18:40:00: Balanced after 1 trials
   
    18:45:00: Balanced after 1 trials
   
    18:50:00: Balanced after 1 trials
   
    18:55:00: Balanced after 1 trials
   
    19:00:00: Balanced after 3 trials
   
    19:05:00: Balanced after 1 trials
   
    19:10:00: Balanced after 1 trials
   
    19:15:00: Balanced after 1 trials
   
    19:20:00: Balanced after 1 trials
   
    19:25:00: Balanced after 1 trials
   
    19:30:00: Balanced after 1 trials
   
    19:35:00: Balanced after 1 trials
   
    19:40:00: Balanced after 1 trials
   
    19:45:00: Balanced after 1 trials
   
    19:50:00: Balanced after 1 trials
   
    19:55:00: Balanced after 1 trials
   
    20:00:00: Balanced after 3 trials
   
    20:05:00: Balanced after 1 trials
   
    20:10:00: Balanced after 1 trials
   
    20:15:00: Balanced after 1 trials
   
    20:20:00: Balanced after 1 trials
   
    20:25:00: Balanced after 1 trials
   
    20:30:00: Balanced after 1 trials
   
    20:35:00: Balanced after 1 trials
   
    20:40:00: Balanced after 1 trials
   
    20:45:00: Balanced after 1 trials
   
    20:50:00: Balanced after 1 trials
   
    20:55:00: Balanced after 1 trials
   
    21:00:00: Balanced after 3 trials
   
    21:05:00: Balanced after 1 trials
   
    21:10:00: Balanced after 1 trials
   
    21:15:00: Balanced after 1 trials
   
    21:20:00: Balanced after 1 trials
   
    21:25:00: Balanced after 1 trials
   
    21:30:00: Balanced after 1 trials
   
    21:35:00: Balanced after 1 trials
   
    21:36:51: Pump 335 changed by Tank 1 control
    21:36:51: Pipe 330 changed by Tank 1 control
    21:36:51: Balanced after 5 trials
    21:36:51: Tank 1 is filling at 17.10 ft
    21:36:51: Tank 3 is filling at 29.92 ft
    21:36:51: Pipe 330 changed from open to closed
    21:36:51: Pump 335 changed from closed to open
   
    21:40:00: Balanced after 2 trials
   
    21:45:00: Balanced after 2 trials
   
    21:50:00: Balanced after 2 trials
   
    21:55:00: Balanced after 2 trials
   
    22:00:00: Balanced after 4 trials
    22:00:00: Tank 1 is emptying at 17.11 ft
   
    22:05:00: Balanced after 2 trials
   
    22:10:00: Balanced after 2 trials
   
    22:15:00: Balanced after 2 trials
   
    22:20:00: Balanced after 2 trials
   
    22:25:00: Balanced after 2 trials
   
    22:30:00: Balanced after 2 trials
   
    22:35:00: Balanced after 2 trials
   
    22:40:00: Balanced after 2 trials
   
    22:45:00: Balanced after 2 trials
   
    22:50:00: Balanced after 2 trials
   
    22:55:00: Balanced after 2 trials
   
    23:00:00: Balanced after 2 trials
   
    23:05:00: Balanced after 2 trials
   
    23:10:00: Balanced after 2 trials
   
    23:15:00: Balanced after 2 trials
   
    23:20:00: Balanced after 2 trials
   
    23:25:00: Balanced after 2 trials
   
    23:30:00: Balanced after 2 trials
   
    23:35:00: Balanced after 2 trials
   
    23:40:00: Balanced after 2 trials
   
    23:45:00: Balanced after 2 trials
   
    23:50:00: Balanced after 2 trials
   
    23:55:00: Balanced after 2 trials
   
    24:00:00: Balanced after 3 trials
   
   
  Node Results at 0:00:00 hrs:
  --------------------------------------------------------
                     Demand      Head  Pressure  Chemical
  Node                  gpm        ft       psi      mg/L
  --------------------------------------------------------
  10                   0.00    144.23     -1.20      0.00
  15                 579.17    128.75     41.92      0.00
  20                   0.00    158.00     12.57      0.00
  35                1781.22    145.10     57.45      0.00
  40                   0.00    145.00      5.68      0.00
  50                   0.00    140.00     10.18      0.00
  60                   0.00    208.99     90.56      0.00
  601                  0.00    302.33    131.00      0.00
  61                   0.00    302.33    131.00      0.00
  101                284.92    144.23     44.30      0.00
  103                199.80    144.20     43.85      0.00
  105                203.05    145.64     50.76      0.00
  107                 81.96    145.64     53.57      0.00
  109                347.10    144.21     53.69      0.00
  111                212.91    145.10     58.54      0.00
  113                 30.01    145.20     62.05      0.00
  115                 78.15    145.87     57.14      0.00
  117                176.57    149.06     58.69      0.00
  119                264.20    157.08     67.20      0.00
  120                  0.00    154.48     66.93      0.00
  121                 62.44    160.64     70.47      0.00
  123                  0.00    165.11     66.77      0.00
  125                 68.40    160.12     64.61      0.00
  127                 26.49    158.63     44.47      0.00
  129                  0.00    158.62     46.63      0.00
  131                 64.13    158.60     66.12      0.00
  139                  8.84    153.15     52.93      0.00
  141                 14.77    149.28     62.95      0.00
  143                  9.30    139.71     62.48      0.00
  145                 41.44    150.30     64.69      0.00
  147                 12.83    151.10     57.46      0.00
  149                 40.60    151.45     58.69      0.00
  151                216.72    154.94     52.62      0.00
  153                 66.25    155.03     38.49      0.00
  157                 77.68    154.59     61.31      0.00
  159                 61.98    151.17     62.90      0.00
  161                 23.70    148.86     62.77      0.00
  163                 14.13    148.39     62.13      0.00
  164                  0.00    148.39     62.13      0.00
  166                  3.90    148.39     65.17      0.00
  167                 21.84    146.50     65.64      0.00
  169                  0.00    146.50     65.64      0.00
  171                 59.01    145.41     64.74      0.00
  173                  0.00    145.39     64.73      0.00
  177                 87.25    145.10     59.40      0.00
  179                  0.00    145.10     59.40      0.00
  181                  0.00    145.11     59.41      0.00
  183                  0.00    145.09     58.10      0.00
  184                  0.00    143.73     55.35      0.00
  185                 38.47    144.31     55.60      0.00
  187                  0.00    144.93     57.38      0.00
  189                161.88    145.31     61.23      0.00
  191                122.85    145.10     52.04      0.00
  193                106.96    145.22     55.12      0.00
  195                  0.00    145.30     56.24      0.00
  197                 25.56    145.10     52.91      0.00
  199                178.98    140.09     61.57      0.00
  201                 66.92    139.35     60.34      0.00
  203               4446.10    139.18     59.44      0.00
  204                  0.00    144.71     53.61      0.00
  205                 98.04    140.05     51.58      0.00
  206                  0.00    139.16     59.86      0.00
  207                104.08    139.35     56.48      0.00
  208                  0.00    138.95     53.27      0.00
  209                  1.31    138.57     60.91      0.00
  211                 13.01    138.45     56.96      0.00
  213                 20.91    138.37     56.92      0.00
  215                138.29    138.13     56.82      0.00
  217                 36.33    138.11     57.24      0.00
  219                 61.98    138.09     58.10      0.00
  225                 34.20    138.10     56.37      0.00
  229                 96.27    138.29     55.37      0.00
  231                 24.72    138.28     57.75      0.00
  237                 23.42    138.44     53.92      0.00
  239                 66.92    138.45     54.36      0.00
  241                  0.00    138.45     54.36      0.00
  243                  6.51    138.45     53.92      0.00
  247                105.57    138.46     52.20      0.00
  249                  0.00    138.46     52.20      0.00
  251                 36.24    138.49     47.01      0.00
  253                 81.78    138.75     44.52      0.00
  255                 60.58    138.81     48.45      0.00
  257                  0.00    151.15     58.13      0.00
  259                  0.00    150.69     54.46      0.00
  261                  0.00    149.01     64.57      0.00
  263                  0.00    148.83     64.49      0.00
  265                  0.00    147.10     63.74      0.00
  267                  0.00    145.32     53.87      0.00
  269                  0.00    145.78     63.16      0.00
  271                  0.00    145.19     60.31      0.00
  273                  0.00    140.05     57.22      0.00
  275                  0.00    139.35     56.05      0.00
  River           -13170.07    220.00      0.00      0.00  Reservoir
  Lake                 0.00    167.00      0.00      0.00  Reservoir
  1                  154.83    145.00      5.68      0.00  Tank
  2                 -428.87    140.00     10.18      0.00  Tank
  3                 2065.46    158.00     12.57      0.00  Tank
   
   
  Link Results at 0:00:00 hrs:
  ----------------------------------------------
                       Flow  Velocity  Headloss
  Link                  gpm       fps   /1000ft
  ----------------------------------------------
  20               -2065.46      0.09      0.00
  40                -154.83      0.01      0.00
  50                 428.87      0.02      0.00
  60               13170.07      9.34      8.94
  101                  0.00      0.00      0.00
  103                155.56      0.25      0.02
  105               -440.49      1.25      0.56
  107                 15.95      0.05      0.00
  109                -44.24      0.07      0.00
  111               -391.34      1.11      0.45
  112                484.35      1.37      0.66
  113               -133.49      0.38      0.06
  114                115.02      0.73      0.33
  115                -66.01      0.42      0.12
  116                -48.48      0.14      0.01
  117                659.49      1.87      1.17
  119               -743.53      2.11      1.46
  120               1202.05      3.41      3.56
  121               1074.69      3.05      2.90
  122                377.53      2.41      3.01
  123               9982.52      4.53      1.78
  125              13170.07      5.98      2.98
  129               2747.58      1.95      0.56
  131               2458.21      1.74      0.46
  133              -2065.46      2.11      0.81
  135                366.26      0.26      0.01
  137                 64.13      0.10      0.00
  145                302.13      1.93      1.99
  147                293.30      1.87      1.88
  149               -588.47      3.76      6.84
  151               -579.17      3.70      6.64
  153                309.95      0.88      0.29
  155                351.39      1.00      0.37
  159               -364.22      1.03      0.39
  161               -404.82      2.58      3.42
  163               -154.71      0.44      0.08
  169                220.97      1.41      1.12
  171                466.83      1.32      0.62
  173               8049.44      3.65      1.20
  175               7971.76      3.62      1.17
  177               7909.78      3.59      1.16
  179               7622.27      3.46      1.08
  180                  3.90      0.01      0.00
  181                  3.90      0.01      0.00
  183               7382.28      3.35      1.02
  185                -21.84      0.14      0.02
  186                317.28      2.03      2.18
  187               6716.77      3.05      0.86
  189               4732.38      2.15      0.45
  191              -1925.38      1.37      0.29
  193              -1781.22      1.26      0.25
  195                279.92      0.79      0.24
  197                192.66      0.55      0.12
  199                 37.83      0.11      0.01
  201               -154.83      0.44      0.08
  202                540.88      3.45      5.85
  203                262.07      1.67      1.53
  204                540.88      1.53      0.81
  205                317.28      0.90      0.30
  207                224.24      0.64      0.16
  209                178.70      1.14      0.75
  211                643.67      1.83      1.12
  213                138.58      0.39      0.07
  215                 56.92      0.16      0.01
  217               -273.40      0.78      0.23
  219               -263.81      0.75      0.21
  221                263.81      1.68      1.55
  223                -11.97      0.03      0.00
  225                 13.59      0.04      0.00
  229               4732.38      3.36      1.33
  231               4432.35      3.14      1.17
  233               4446.10      3.15      1.37
  235                121.06      0.34      0.05
  237                452.81      1.28      0.58
  238                379.15      1.08      0.42
  239                 30.42      0.09      0.00
  240                379.15      1.08      0.42
  241                379.15      1.08      0.42
  243                377.84      0.60      0.10
  245                327.53      0.52      0.08
  247                270.80      0.43      0.06
  249                132.51      0.21      0.01
  251                 61.98      0.13      0.01
  257                 34.20      0.10      0.00
  261                 35.83      0.23      0.04
  263                 24.72      0.07      0.00
  269                 37.30      0.11      0.01
  271                 85.16      0.54      0.19
  273                -71.27      0.20      0.02
  275                -47.75      0.14      0.01
  277                  6.51      0.02      0.00
  281                -54.26      0.22      0.03
  283                -90.44      0.26      0.03
  285                 18.84      0.05      0.00
  287               -178.67      0.73      0.25
  289                428.87      1.75      1.28
  291                 81.78      0.33      0.06
  293                107.84      0.69      0.30
  295                -71.60      0.20      0.02
  297                504.89      3.22      5.15
  299                242.60      1.55      1.33
  301                242.60      1.55      1.33
  303                262.29      1.67      1.53
  305                154.60      0.44      0.08
  307                416.89      1.18      0.50
  309                221.96      1.42      1.12
  311               -165.04      0.47      0.09
  313                507.91      1.44      0.72
  315              -2061.14      1.46      0.33
  317                111.09      0.71      0.31
  319                  9.97      0.03      0.00
  321               7604.24      3.45      1.08
  323                -80.67      0.23      0.02
  325                135.76      0.87      0.45
  329              13170.07      5.98      3.02
  330                  0.00      0.00      0.00
  333                 -0.00      0.00      0.00
  10                   0.00      0.00      0.00  Pump
  335              13170.07      0.00    -93.34  Pump
   
   
  Node Results at 0:05:00 hrs:
  --------------------------------------------------------
                     Demand      Head  Pressure  Chemical
  Node                  gpm        ft       psi      mg/L
  --------------------------------------------------------
  10                   0.00    144.25     -1.19      0.00
  15                 579.17    128.79     41.94      0.00
  20                   0.00    158.07     12.59      0.00
  35                1781.22    145.12     57.46      0.00
  40                   0.00    145.02      5.68      0.00
  50                   0.00    139.85     10.12      0.00
  60                   0.00    208.99     90.56      0.00
  601                  0.00    302.34    131.00      0.00
  61                   0.00    302.34    131.00      0.00
  101                284.92    144.25     44.30      0.00
  103                199.80    144.22     43.86      0.00
  105                203.05    145.66     50.77      0.00
  107                 81.96    145.66     53.58      0.00
  109                347.10    144.23     53.70      0.00
  111                212.91    145.12     58.55      0.00
  113                 30.01    145.22     62.06      0.00
  115                 78.15    145.89     57.15      0.00
  117                176.57    149.09     58.71      0.00
  119                264.20    157.12     67.21      0.00
  120                  0.00    154.51     66.95      0.00
  121                 62.44    160.69     70.49      0.00
  123                  0.00    165.15     66.79      0.00
  125                 68.40    160.17     64.63      0.00
  127                 26.49    158.69     44.50      0.00
  129                  0.00    158.68     46.66      0.00
  131                 64.13    158.66     66.15      0.00
  139                  8.84    153.20     52.95      0.00
  141                 14.77    149.33     62.97      0.00
  143                  9.30    139.75     62.50      0.00
  145                 41.44    150.35     64.71      0.00
  147                 12.83    151.15     57.48      0.00
  149                 40.60    151.49     58.71      0.00
  151                216.72    154.98     52.64      0.00
  153                 66.25    155.07     38.51      0.00
  157                 77.68    154.62     61.32      0.00
  159                 61.98    151.20     62.92      0.00
  161                 23.70    148.88     62.78      0.00
  163                 14.13    148.41     62.14      0.00
  164                  0.00    148.41     62.14      0.00
  166                  3.90    148.41     65.17      0.00
  167                 21.84    146.52     65.65      0.00
  169                  0.00    146.52     65.65      0.00
  171                 59.01    145.43     64.75      0.00
  173                  0.00    145.41     64.74      0.00
  177                 87.25    145.12     59.41      0.00
  179                  0.00    145.11     59.41      0.00
  181                  0.00    145.12     59.42      0.00
  183                  0.00    145.11     58.11      0.00
  184                  0.00    143.74     55.35      0.00
  185                 38.47    144.33     55.60      0.00
  187                  0.00    144.95     57.39      0.00
  189                161.88    145.33     61.24      0.00
  191                122.85    145.12     52.05      0.00
  193                106.96    145.24     55.13      0.00
  195                  0.00    145.32     56.25      0.00
  197                 25.56    145.12     52.91      0.00
  199                178.98    140.08     61.57      0.00
  201                 66.92    139.34     60.33      0.00
  203               4446.10    139.18     59.44      0.00
  204                  0.00    144.73     53.61      0.00
  205                 98.04    140.05     51.58      0.00
  206                  0.00    139.14     59.86      0.00
  207                104.08    139.34     56.48      0.00
  208                  0.00    138.91     53.26      0.00
  209                  1.31    138.52     60.89      0.00
  211                 13.01    138.39     56.93      0.00
  213                 20.91    138.31     56.90      0.00
  215                138.29    138.07     56.79      0.00
  217                 36.33    138.05     57.22      0.00
  219                 61.98    138.04     58.08      0.00
  225                 34.20    138.04     56.35      0.00
  229                 96.27    138.22     55.34      0.00
  231                 24.72    138.22     57.72      0.00
  237                 23.42    138.37     53.89      0.00
  239                 66.92    138.38     54.33      0.00
  241                  0.00    138.38     54.33      0.00
  243                  6.51    138.38     53.89      0.00
  247                105.57    138.39     52.17      0.00
  249                  0.00    138.39     52.17      0.00
  251                 36.24    138.42     46.98      0.00
  253                 81.78    138.65     44.48      0.00
  255                 60.58    138.72     48.41      0.00
  257                  0.00    151.18     58.14      0.00
  259                  0.00    150.72     54.47      0.00
  261                  0.00    149.04     64.58      0.00
  263                  0.00    148.86     64.50      0.00
  265                  0.00    147.12     63.75      0.00
  267                  0.00    145.34     53.88      0.00
  269                  0.00    145.79     63.17      0.00
  271                  0.00    145.21     60.32      0.00
  273                  0.00    140.05     57.22      0.00
  275                  0.00    139.35     56.05      0.00
  River           -13168.62    220.00      0.00      0.00  Reservoir
  Lake                 0.00    167.00      0.00      0.00  Reservoir
  1                  153.48    145.02      5.68      0.00  Tank
  2                 -418.29    139.85     10.12      0.00  Tank
  3                 2054.77    158.07     12.59      0.00  Tank
   
   
  Link Results at 0:05:00 hrs:
  ----------------------------------------------
                       Flow  Velocity  Headloss
  Link                  gpm       fps   /1000ft
  ----------------------------------------------
  20               -2054.77      0.09      0.00
  40                -153.48      0.01      0.00
  50                 418.29      0.02      0.00
  60               13168.62      9.34      8.94
  101                  0.00      0.00      0.00
  103                155.86      0.25      0.02
  105               -440.78      1.25      0.56
  107                 16.13      0.05      0.00
  109                -43.94      0.07      0.00
  111               -391.04      1.11      0.45
  112                485.03      1.38      0.66
  113               -133.32      0.38      0.06
  114                115.23      0.74      0.33
  115                -65.83      0.42      0.12
  116                -48.11      0.14      0.01
  117                659.97      1.87      1.17
  119               -744.25      2.11      1.47
  120               1202.94      3.41      3.57
  121               1075.51      3.05      2.90
  122                377.84      2.41      3.01
  123               9991.10      4.53      1.78
  125              13168.62      5.98      2.98
  129               2737.24      1.94      0.56
  131               2447.73      1.74      0.45
  133              -2054.77      2.10      0.80
  135                366.47      0.26      0.01
  137                 64.13      0.10      0.00
  145                302.34      1.93      1.99
  147                293.51      1.87      1.89
  149               -588.47      3.76      6.84
  151               -579.17      3.70      6.64
  153                309.74      0.88      0.29
  155                351.18      1.00      0.36
  159               -364.01      1.03      0.39
  161               -404.61      2.58      3.42
  163               -154.86      0.44      0.08
  169                221.11      1.41      1.12
  171                466.47      1.32      0.62
  173               8057.49      3.66      1.20
  175               7979.80      3.62      1.18
  177               7917.82      3.59      1.16
  179               7630.16      3.46      1.08
  180                  3.90      0.01      0.00
  181                  3.90      0.01      0.00
  183               7390.08      3.35      1.02
  185                -21.84      0.14      0.02
  186                318.12      2.03      2.19
  187               6724.36      3.05      0.86
  189               4741.71      2.15      0.45
  191              -1923.64      1.36      0.29
  193              -1781.22      1.26      0.25
  195                278.36      0.79      0.24
  197                191.10      0.54      0.12
  199                 37.62      0.11      0.01
  201               -153.48      0.44      0.08
  202                542.15      3.46      5.88
  203                262.50      1.68      1.53
  204                542.15      1.54      0.82
  205                318.12      0.90      0.30
  207                224.88      0.64      0.16
  209                178.82      1.14      0.75
  211                643.89      1.83      1.12
  213                139.30      0.40      0.07
  215                 57.63      0.16      0.01
  217               -273.31      0.78      0.23
  219               -263.96      0.75      0.22
  221                263.96      1.68      1.55
  223                -11.15      0.03      0.00
  225                 14.41      0.04      0.00
  229               4741.71      3.36      1.33
  231               4440.48      3.15      1.18
  233               4446.10      3.15      1.37
  235                122.25      0.35      0.05
  237                454.99      1.29      0.59
  238                389.73      1.11      0.44
  239                 38.83      0.11      0.01
  240                389.73      1.11      0.44
  241                389.73      1.11      0.44
  243                388.43      0.62      0.11
  245                328.33      0.52      0.08
  247                270.80      0.43      0.06
  249                132.51      0.21      0.01
  251                 61.98      0.13      0.01
  257                 34.20      0.10      0.00
  261                 36.62      0.23      0.04
  263                 24.72      0.07      0.00
  269                 47.10      0.13      0.01
  271                 84.37      0.54      0.19
  273                -60.69      0.17      0.01
  275                -43.78      0.12      0.01
  277                  6.51      0.02      0.00
  281                -50.29      0.21      0.02
  283                -83.82      0.24      0.03
  285                 16.11      0.05      0.00
  287               -171.97      0.70      0.24
  289                418.29      1.71      1.23
  291                 81.78      0.33      0.06
  293                103.95      0.66      0.28
  295                -67.71      0.19      0.02
  297                505.27      3.23      5.16
  299                242.79      1.55      1.33
  301                242.79      1.55      1.33
  303                262.49      1.68      1.53
  305                154.70      0.44      0.08
  307                417.18      1.18      0.50
  309                222.05      1.42      1.13
  311               -164.42      0.47      0.09
  313                507.95      1.44      0.72
  315              -2059.58      1.46      0.33
  317                111.36      0.71      0.31
  319                 10.89      0.03      0.00
  321               7612.13      3.46      1.08
  323                -72.53      0.21      0.02
  325                135.94      0.87      0.45
  329              13168.62      5.98      3.02
  330                  0.00      0.00      0.00
  333                 -0.00      0.00      0.00
  10                   0.00      0.00      0.00  Pump
  335              13168.62      0.00    -93.35  Pump
   
   
  Node Results at 0:10:00 hrs:
  --------------------------------------------------------
                     Demand      Head  Pressure  Chemical
  Node                  gpm        ft       psi      mg/L
  --------------------------------------------------------
  10                   0.00    144.27     -1.18      0.00
  15                 579.17    128.84     41.96      0.00
  20                   0.00    158.13     12.62      0.00
  35                1781.22    145.13     57.47      0.00
  40                   0.00    145.04      5.69      0.00
  50                   0.00    139.71     10.06      0.00
  60                   0.00    209.00     90.56      0.00
  601                  0.00    302.36    131.01      0.00
  61                   0.00    302.36    131.01      0.00
  101                284.92    144.27     44.31      0.00
  103                199.80    144.24     43.87      0.00
  105                203.05    145.68     50.78      0.00
  107                 81.96    145.68     53.59      0.00
  109                347.10    144.25     53.71      0.00
  111                212.91    145.14     58.56      0.00
  113                 30.01    145.24     62.07      0.00
  115                 78.15    145.91     57.16      0.00
  117                176.57    149.11     58.72      0.00
  119                264.20    157.15     67.23      0.00
  120                  0.00    154.55     66.96      0.00
  121                 62.44    160.73     70.51      0.00
  123                  0.00    165.19     66.81      0.00
  125                 68.40    160.21     64.65      0.00
  127                 26.49    158.75     44.52      0.00
  129                  0.00    158.74     46.68      0.00
  131                 64.13    158.71     66.17      0.00
  139                  8.84    153.25     52.97      0.00
  141                 14.77    149.38     62.99      0.00
  143                  9.30    139.80     62.53      0.00
  145                 41.44    150.39     64.73      0.00
  147                 12.83    151.19     57.50      0.00
  149                 40.60    151.54     58.73      0.00
  151                216.72    155.02     52.66      0.00
  153                 66.25    155.12     38.53      0.00
  157                 77.68    154.66     61.34      0.00
  159                 61.98    151.23     62.93      0.00
  161                 23.70    148.90     62.79      0.00
  163                 14.13    148.44     62.15      0.00
  164                  0.00    148.44     62.15      0.00
  166                  3.90    148.44     65.18      0.00
  167                 21.84    146.54     65.66      0.00
  169                  0.00    146.54     65.66      0.00
  171                 59.01    145.45     64.75      0.00
  173                  0.00    145.42     64.75      0.00
  177                 87.25    145.13     59.42      0.00
  179                  0.00    145.13     59.42      0.00
  181                  0.00    145.14     59.42      0.00
  183                  0.00    145.13     58.12      0.00
  184                  0.00    143.75     55.36      0.00
  185                 38.47    144.34     55.61      0.00
  187                  0.00    144.97     57.40      0.00
  189                161.88    145.34     61.24      0.00
  191                122.85    145.14     52.06      0.00
  193                106.96    145.26     55.14      0.00
  195                  0.00    145.33     56.26      0.00
  197                 25.56    145.14     52.92      0.00
  199                178.98    140.08     61.56      0.00
  201                 66.92    139.34     60.33      0.00
  203               4446.10    139.17     59.44      0.00
  204                  0.00    144.75     53.62      0.00
  205                 98.04    140.04     51.58      0.00
  206                  0.00    139.12     59.85      0.00
  207                104.08    139.33     56.47      0.00
  208                  0.00    138.88     53.25      0.00
  209                  1.31    138.47     60.87      0.00
  211                 13.01    138.33     56.91      0.00
  213                 20.91    138.26     56.87      0.00
  215                138.29    138.02     56.77      0.00
  217                 36.33    137.99     57.19      0.00
  219                 61.98    137.98     58.05      0.00
  225                 34.20    137.98     56.32      0.00
  229                 96.27    138.16     55.32      0.00
  231                 24.72    138.16     57.70      0.00
  237                 23.42    138.31     53.86      0.00
  239                 66.92    138.31     54.30      0.00
  241                  0.00    138.31     54.30      0.00
  243                  6.51    138.31     53.86      0.00
  247                105.57    138.32     52.14      0.00
  249                  0.00    138.32     52.14      0.00
  251                 36.24    138.35     46.95      0.00
  253                 81.78    138.56     44.44      0.00
  255                 60.58    138.63     48.37      0.00
  257                  0.00    151.21     58.15      0.00
  259                  0.00    150.75     54.49      0.00
  261                  0.00    149.06     64.59      0.00
  263                  0.00    148.89     64.51      0.00
  265                  0.00    147.14     63.76      0.00
  267                  0.00    145.36     53.89      0.00
  269                  0.00    145.81     63.18      0.00
  271                  0.00    145.23     60.33      0.00
  273                  0.00    140.04     57.21      0.00
  275                  0.00    139.34     56.04      0.00
  River           -13167.17    220.00      0.00      0.00  Reservoir
  Lake                 0.00    167.00      0.00      0.00  Reservoir
  1                  152.31    145.04      5.69      0.00  Tank
  2                 -407.95    139.71     10.06      0.00  Tank
  3                 2044.16    158.13     12.62      0.00  Tank
   
   
  Link Results at 0:10:00 hrs:
  ----------------------------------------------
                       Flow  Velocity  Headloss
  Link                  gpm       fps   /1000ft
  ----------------------------------------------
  20               -2044.16      0.09      0.00
  40                -152.31      0.01      0.00
  50                 407.95      0.02      0.00
  60               13167.17      9.34      8.94
  101                  0.00      0.00      0.00
  103                156.15      0.25      0.02
  105               -441.08      1.25      0.56
  107                 16.30      0.05      0.00
  109                -43.65      0.07      0.00
  111               -390.75      1.11      0.44
  112                485.71      1.38      0.67
  113               -133.15      0.38      0.06
  114                115.44      0.74      0.34
  115                -65.66      0.42      0.12
  116                -47.73      0.14      0.01
  117                660.44      1.87      1.18
  119               -744.96      2.11      1.47
  120               1203.82      3.41      3.57
  121               1076.31      3.05      2.90
  122                378.14      2.41      3.02
  123               9999.61      4.54      1.79
  125              13167.17      5.98      2.98
  129               2726.98      1.93      0.56
  131               2437.32      1.73      0.45
  133              -2044.16      2.09      0.79
  135                366.68      0.26      0.01
  137                 64.13      0.10      0.00
  145                302.55      1.93      2.00
  147                293.72      1.87      1.89
  149               -588.47      3.76      6.84
  151               -579.17      3.70      6.64
  153                309.53      0.88      0.29
  155                350.97      1.00      0.36
  159               -363.80      1.03      0.39
  161               -404.40      2.58      3.42
  163               -155.00      0.44      0.08
  169                221.26      1.41      1.12
  171                466.12      1.32      0.62
  173               8065.47      3.66      1.20
  175               7987.79      3.63      1.18
  177               7925.81      3.60      1.16
  179               7637.99      3.47      1.09
  180                  3.90      0.01      0.00
  181                  3.90      0.01      0.00
  183               7397.82      3.36      1.02
  185                -21.84      0.14      0.02
  186                318.95      2.04      2.20
  187               6731.87      3.06      0.86
  189               4750.81      2.16      0.45
  191              -1922.05      1.36      0.29
  193              -1781.22      1.26      0.25
  195                276.95      0.79      0.23
  197                189.70      0.54      0.12
  199                 37.39      0.11      0.01
  201               -152.31      0.43      0.08
  202                543.38      3.47      5.90
  203                262.91      1.68      1.54
  204                543.38      1.54      0.82
  205                318.95      0.90      0.31
  207                225.52      0.64      0.16
  209                178.93      1.14      0.75
  211                644.11      1.83      1.12
  213                140.02      0.40      0.07
  215                 58.35      0.17      0.01
  217               -273.22      0.78      0.23
  219               -264.12      0.75      0.22
  221                264.12      1.69      1.55
  223                -10.35      0.03      0.00
  225                 15.21      0.04      0.00
  229               4750.81      3.37      1.34
  231               4448.33      3.15      1.18
  233               4446.10      3.15      1.37
  235                123.50      0.35      0.05
  237                457.24      1.30      0.59
  238                400.07      1.13      0.46
  239                 46.92      0.13      0.01
  240                400.07      1.13      0.46
  241                400.07      1.13      0.46
  243                398.77      0.64      0.11
  245                329.23      0.53      0.08
  247                270.80      0.43      0.06
  249                132.51      0.21      0.01
  251                 61.98      0.13      0.01
  257                 34.20      0.10      0.00
  261                 37.53      0.24      0.04
  263                 24.72      0.07      0.00
  269                 56.53      0.16      0.01
  271                 83.46      0.53      0.18
  273                -50.35      0.14      0.01
  275                -39.91      0.11      0.01
  277                  6.51      0.02      0.00
  281                -46.42      0.19      0.02
  283                -77.35      0.22      0.02
  285                 13.44      0.04      0.00
  287               -165.43      0.68      0.22
  289                407.95      1.67      1.17
  291                 81.78      0.33      0.06
  293                100.15      0.64      0.26
  295                -63.91      0.18      0.02
  297                505.65      3.23      5.17
  299                242.97      1.55      1.33
  301                242.97      1.55      1.33
  303                262.68      1.68      1.54
  305                154.79      0.44      0.08
  307                417.47      1.18      0.50
  309                222.14      1.42      1.13
  311               -163.80      0.46      0.09
  313                507.99      1.44      0.72
  315              -2058.17      1.46      0.33
  317                111.60      0.71      0.31
  319                 11.90      0.03      0.00
  321               7619.96      3.46      1.08
  323                -64.69      0.18      0.02
  325                136.12      0.87      0.45
  329              13167.17      5.98      3.01
  330                  0.00      0.00      0.00
  333                 -0.00      0.00      0.00
  10                   0.00      0.00      0.00  Pump
  335              13167.17      0.00    -93.36  Pump
   
   
  Node Results at 0:15:00 hrs:
  --------------------------------------------------------
                     Demand      Head  Pressure  Chemical
  Node                  gpm        ft       psi      mg/L
  --------------------------------------------------------
  10                   0.00    144.29     -1.17      0.00
  15                 579.17    128.89     41.98      0.00
  20                   0.00    158.20     12.65      0.00
  35                1781.22    145.15     57.48      0.00
  40                   0.00    145.05      5.70      0.00
  50                   0.00    139.57     10.00      0.00
  60                   0.00    209.00     90.56      0.00
  601                  0.00    302.37    131.02      0.00
  61                   0.00    302.37    131.02      0.00
  101                284.92    144.29     44.32      0.00
  103                199.80    144.26     43.88      0.00
  105                203.05    145.71     50.79      0.00
  107                 81.96    145.70     53.60      0.00
  109                347.10    144.27     53.72      0.00
  111                212.91    145.16     58.56      0.00
  113                 30.01    145.26     62.07      0.00
  115                 78.15    145.93     57.17      0.00
  117                176.57    149.14     58.73      0.00
  119                264.20    157.19     67.25      0.00
  120                  0.00    154.58     66.98      0.00
  121                 62.44    160.77     70.53      0.00
  123                  0.00    165.23     66.83      0.00
  125                 68.40    160.26     64.67      0.00
  127                 26.49    158.81     44.55      0.00
  129                  0.00    158.80     46.71      0.00
  131                 64.13    158.77     66.20      0.00
  139                  8.84    153.30     52.99      0.00
  141                 14.77    149.43     63.01      0.00
  143                  9.30    139.85     62.55      0.00
  145                 41.44    150.44     64.75      0.00
  147                 12.83    151.24     57.52      0.00
  149                 40.60    151.58     58.75      0.00
  151                216.72    155.06     52.67      0.00
  153                 66.25    155.16     38.54      0.00
  157                 77.68    154.69     61.35      0.00
  159                 61.98    151.25     62.94      0.00
  161                 23.70    148.93     62.80      0.00
  163                 14.13    148.46     62.16      0.00
  164                  0.00    148.46     62.16      0.00
  166                  3.90    148.46     65.19      0.00
  167                 21.84    146.55     65.67      0.00
  169                  0.00    146.56     65.67      0.00
  171                 59.01    145.46     64.76      0.00
  173                  0.00    145.44     64.75      0.00
  177                 87.25    145.15     59.43      0.00
  179                  0.00    145.15     59.43      0.00
  181                  0.00    145.16     59.43      0.00
  183                  0.00    145.14     58.12      0.00
  184                  0.00    143.77     55.36      0.00
  185                 38.47    144.36     55.62      0.00
  187                  0.00    144.98     57.41      0.00
  189                161.88    145.36     61.25      0.00
  191                122.85    145.16     52.06      0.00
  193                106.96    145.28     55.15      0.00
  195                  0.00    145.35     56.27      0.00
  197                 25.56    145.16     52.93      0.00
  199                178.98    140.08     61.56      0.00
  201                 66.92    139.33     60.33      0.00
  203               4446.10    139.17     59.43      0.00
  204                  0.00    144.76     53.63      0.00
  205                 98.04    140.04     51.58      0.00
  206                  0.00    139.10     59.84      0.00
  207                104.08    139.32     56.47      0.00
  208                  0.00    138.85     53.23      0.00
  209                  1.31    138.42     60.84      0.00
  211                 13.01    138.28     56.88      0.00
  213                 20.91    138.20     56.85      0.00
  215                138.29    137.96     56.74      0.00
  217                 36.33    137.94     57.17      0.00
  219                 61.98    137.92     58.03      0.00
  225                 34.20    137.93     56.30      0.00
  229                 96.27    138.10     55.29      0.00
  231                 24.72    138.10     57.67      0.00
  237                 23.42    138.24     53.83      0.00
  239                 66.92    138.25     54.27      0.00
  241                  0.00    138.25     54.27      0.00
  243                  6.51    138.25     53.84      0.00
  247                105.57    138.25     52.11      0.00
  249                  0.00    138.25     52.11      0.00
  251                 36.24    138.27     46.92      0.00
  253                 81.78    138.47     44.40      0.00
  255                 60.58    138.54     48.33      0.00
  257                  0.00    151.24     58.17      0.00
  259                  0.00    150.78     54.50      0.00
  261                  0.00    149.09     64.60      0.00
  263                  0.00    148.91     64.52      0.00
  265                  0.00    147.16     63.76      0.00
  267                  0.00    145.38     53.89      0.00
  269                  0.00    145.83     63.19      0.00
  271                  0.00    145.24     60.33      0.00
  273                  0.00    140.04     57.21      0.00
  275                  0.00    139.34     56.04      0.00
  River           -13165.73    220.00      0.00      0.00  Reservoir
  Lake                 0.00    167.00      0.00      0.00  Reservoir
  1                  151.29    145.05      5.70      0.00  Tank
  2                 -397.84    139.57     10.00      0.00  Tank
  3                 2033.62    158.20     12.65      0.00  Tank
   
   
  Link Results at 0:15:00 hrs:
  ----------------------------------------------
                       Flow  Velocity  Headloss
  Link                  gpm       fps   /1000ft
  ----------------------------------------------
  20               -2033.62      0.08      0.00
  40                -151.29      0.01      0.00
  50                 397.84      0.02      0.00
  60               13165.73      9.34      8.94
  101                  0.00      0.00      0.00
  103                156.45      0.25      0.02
  105               -441.37      1.25      0.56
  107                 16.48      0.05      0.00
  109                -43.35      0.07      0.00
  111               -390.45      1.11      0.44
  112                486.39      1.38      0.67
  113               -132.98      0.38      0.06
  114                115.65      0.74      0.34
  115                -65.48      0.42      0.12
  116                -47.35      0.13      0.01
  117                660.90      1.87      1.18
  119               -745.67      2.12      1.47
  120               1204.70      3.42      3.58
  121               1077.11      3.06      2.91
  122                378.44      2.42      3.02
  123              10008.06      4.54      1.79
  125              13165.73      5.98      2.97
  129               2716.79      1.93      0.55
  131               2426.99      1.72      0.45
  133              -2033.62      2.08      0.78
  135                366.88      0.26      0.01
  137                 64.13      0.10      0.00
  145                302.76      1.93      2.00
  147                293.92      1.88      1.89
  149               -588.47      3.76      6.84
  151               -579.17      3.70      6.64
  153                309.32      0.88      0.29
  155                350.77      1.00      0.36
  159               -363.59      1.03      0.39
  161               -404.20      2.58      3.41
  163               -155.14      0.44      0.08
  169                221.40      1.41      1.12
  171                465.78      1.32      0.62
  173               8073.39      3.66      1.20
  175               7995.70      3.63      1.18
  177               7933.72      3.60      1.16
  179               7645.75      3.47      1.09
  180                  3.90      0.01      0.00
  181                  3.90      0.01      0.00
  183               7405.49      3.36      1.02
  185                -21.84      0.14      0.02
  186                319.76      2.04      2.21
  187               6739.31      3.06      0.86
  189               4759.71      2.16      0.45
  191              -1920.60      1.36      0.29
  193              -1781.22      1.26      0.25
  195                275.68      0.78      0.23
  197                188.43      0.53      0.12
  199                 37.13      0.11      0.01
  201               -151.29      0.43      0.08
  202                544.59      3.48      5.93
  203                263.31      1.68      1.54
  204                544.59      1.54      0.82
  205                319.76      0.91      0.31
  207                226.17      0.64      0.16
  209                179.04      1.14      0.76
  211                644.34      1.83      1.12
  213                140.72      0.40      0.07
  215                 59.06      0.17      0.01
  217               -273.12      0.77      0.23
  219               -264.27      0.75      0.22
  221                264.27      1.69      1.55
  223                 -9.55      0.03      0.00
  225                 16.01      0.05      0.00
  229               4759.71      3.38      1.34
  231               4455.92      3.16      1.19
  233               4446.10      3.15      1.37
  235                124.81      0.35      0.05
  237                459.54      1.30      0.60
  238                410.18      1.16      0.49
  239                 54.73      0.16      0.01
  240                410.18      1.16      0.49
  241                410.18      1.16      0.49
  243                408.87      0.65      0.12
  245                330.23      0.53      0.08
  247                270.80      0.43      0.06
  249                132.51      0.21      0.01
  251                 61.98      0.13      0.01
  257                 34.20      0.10      0.00
  261                 38.52      0.25      0.04
  263                 24.72      0.07      0.00
  269                 65.64      0.19      0.02
  271                 82.47      0.53      0.18
  273                -40.24      0.11      0.01
  275                -36.13      0.10      0.01
  277                  6.51      0.02      0.00
  281                -42.64      0.17      0.02
  283                -71.03      0.20      0.02
  285                 10.83      0.03      0.00
  287               -159.04      0.65      0.20
  289                397.84      1.63      1.12
  291                 81.78      0.33      0.06
  293                 96.43      0.62      0.24
  295                -60.19      0.17      0.01
  297                506.02      3.23      5.17
  299                243.15      1.55      1.33
  301                243.15      1.55      1.33
  303                262.88      1.68      1.54
  305                154.88      0.44      0.08
  307                417.76      1.19      0.50
  309                222.23      1.42      1.13
  311               -163.17      0.46      0.09
  313                508.03      1.44      0.72
  315              -2056.90      1.46      0.33
  317                111.83      0.71      0.32
  319                 12.98      0.04      0.00
  321               7627.72      3.46      1.08
  323                -57.10      0.16      0.01
  325                136.31      0.87      0.46
  329              13165.73      5.98      3.01
  330                  0.00      0.00      0.00
  333                 -0.00      0.00      0.00
  10                   0.00      0.00      0.00  Pump
  335              13165.73      0.00    -93.37  Pump
   
   
  Node Results at 0:20:00 hrs:
  --------------------------------------------------------
                     Demand      Head  Pressure  Chemical
  Node                  gpm        ft       psi      mg/L
  --------------------------------------------------------
  10                   0.00    144.31     -1.16      0.00
  15                 579.17    128.93     42.00      0.00
  20                   0.00    158.26     12.68      0.00
  35                1781.22    145.17     57.48      0.00
  40                   0.00    145.07      5.71      0.00
  50                   0.00    139.44      9.94      0.00
  60                   0.00    209.00     90.56      0.00
  601                  0.00    302.39    131.02      0.00
  61                   0.00    302.39    131.02      0.00
  101                284.92    144.31     44.33      0.00
  103                199.80    144.28     43.89      0.00
  105                203.05    145.73     50.80      0.00
  107                 81.96    145.73     53.61      0.00
  109                347.10    144.29     53.73      0.00
  111                212.91    145.18     58.57      0.00
  113                 30.01    145.28     62.08      0.00
  115                 78.15    145.95     57.18      0.00
  117                176.57    149.17     58.74      0.00
  119                264.20    157.23     67.26      0.00
  120                  0.00    154.62     66.99      0.00
  121                 62.44    160.82     70.55      0.00
  123                  0.00    165.28     66.85      0.00
  125                 68.40    160.31     64.69      0.00
  127                 26.49    158.87     44.57      0.00
  129                  0.00    158.86     46.73      0.00
  131                 64.13    158.83     66.22      0.00
  139                  8.84    153.35     53.02      0.00
  141                 14.77    149.47     63.03      0.00
  143                  9.30    139.89     62.57      0.00
  145                 41.44    150.48     64.77      0.00
  147                 12.83    151.28     57.54      0.00
  149                 40.60    151.63     58.77      0.00
  151                216.72    155.10     52.69      0.00
  153                 66.25    155.20     38.56      0.00
  157                 77.68    154.73     61.37      0.00
  159                 61.98    151.28     62.95      0.00
  161                 23.70    148.95     62.81      0.00
  163                 14.13    148.48     62.17      0.00
  164                  0.00    148.48     62.17      0.00
  166                  3.90    148.48     65.20      0.00
  167                 21.84    146.57     65.68      0.00
  169                  0.00    146.57     65.68      0.00
  171                 59.01    145.48     64.77      0.00
  173                  0.00    145.46     64.76      0.00
  177                 87.25    145.17     59.43      0.00
  179                  0.00    145.16     59.43      0.00
  181                  0.00    145.17     59.44      0.00
  183                  0.00    145.16     58.13      0.00
  184                  0.00    143.78     55.37      0.00
  185                 38.47    144.37     55.62      0.00
  187                  0.00    145.00     57.41      0.00
  189                161.88    145.38     61.26      0.00
  191                122.85    145.18     52.07      0.00
  193                106.96    145.29     55.16      0.00
  195                  0.00    145.37     56.27      0.00
  197                 25.56    145.18     52.94      0.00
  199                178.98    140.08     61.56      0.00
  201                 66.92    139.33     60.33      0.00
  203               4446.10    139.16     59.43      0.00
  204                  0.00    144.78     53.63      0.00
  205                 98.04    140.04     51.58      0.00
  206                  0.00    139.08     59.83      0.00
  207                104.08    139.31     56.46      0.00
  208                  0.00    138.82     53.22      0.00
  209                  1.31    138.37     60.82      0.00
  211                 13.01    138.22     56.86      0.00
  213                 20.91    138.14     56.82      0.00
  215                138.29    137.90     56.72      0.00
  217                 36.33    137.88     57.14      0.00
  219                 61.98    137.86     58.00      0.00
  225                 34.20    137.87     56.27      0.00
  229                 96.27    138.04     55.26      0.00
  231                 24.72    138.03     57.64      0.00
  237                 23.42    138.18     53.81      0.00
  239                 66.92    138.18     54.24      0.00
  241                  0.00    138.18     54.24      0.00
  243                  6.51    138.18     53.81      0.00
  247                105.57    138.19     52.08      0.00
  249                  0.00    138.19     52.08      0.00
  251                 36.24    138.20     46.89      0.00
  253                 81.78    138.39     44.36      0.00
  255                 60.58    138.45     48.29      0.00
  257                  0.00    151.27     58.18      0.00
  259                  0.00    150.81     54.51      0.00
  261                  0.00    149.12     64.61      0.00
  263                  0.00    148.94     64.54      0.00
  265                  0.00    147.18     63.77      0.00
  267                  0.00    145.40     53.90      0.00
  269                  0.00    145.85     63.20      0.00
  271                  0.00    145.26     60.34      0.00
  273                  0.00    140.04     57.21      0.00
  275                  0.00    139.33     56.04      0.00
  River           -13164.29    220.00      0.00      0.00  Reservoir
  Lake                 0.00    167.00      0.00      0.00  Reservoir
  1                  150.43    145.07      5.71      0.00  Tank
  2                 -387.96    139.44      9.94      0.00  Tank
  3                 2023.16    158.26     12.68      0.00  Tank
   
   
  Link Results at 0:20:00 hrs:
  ----------------------------------------------
                       Flow  Velocity  Headloss
  Link                  gpm       fps   /1000ft
  ----------------------------------------------
  20               -2023.16      0.08      0.00
  40                -150.43      0.01      0.00
  50                 387.96      0.02      0.00
  60               13164.29      9.34      8.94
  101                  0.00      0.00      0.00
  103                156.74      0.25      0.02
  105               -441.66      1.25      0.56
  107                 16.65      0.05      0.00
  109                -43.06      0.07      0.00
  111               -390.16      1.11      0.44
  112                487.06      1.38      0.67
  113               -132.81      0.38      0.06
  114                115.85      0.74      0.34
  115                -65.31      0.42      0.12
  116                -46.98      0.13      0.01
  117                661.37      1.88      1.18
  119               -746.37      2.12      1.47
  120               1205.56      3.42      3.58
  121               1077.91      3.06      2.91
  122                378.74      2.42      3.03
  123              10016.43      4.55      1.79
  125              13164.29      5.98      2.97
  129               2706.67      1.92      0.55
  131               2416.74      1.71      0.44
  133              -2023.16      2.07      0.78
  135                367.09      0.26      0.01
  137                 64.13      0.10      0.00
  145                302.96      1.93      2.00
  147                294.13      1.88      1.89
  149               -588.47      3.76      6.84
  151               -579.17      3.70      6.64
  153                309.12      0.88      0.29
  155                350.56      0.99      0.36
  159               -363.39      1.03      0.39
  161               -403.99      2.58      3.41
  163               -155.28      0.44      0.08
  169                221.54      1.41      1.12
  171                465.43      1.32      0.61
  173               8081.24      3.67      1.20
  175               8003.55      3.63      1.18
  177               7941.57      3.60      1.17
  179               7653.45      3.47      1.09
  180                  3.90      0.01      0.00
  181                  3.90      0.01      0.00
  183               7413.10      3.36      1.03
  185                -21.84      0.14      0.02
  186                320.56      2.05      2.22
  187               6746.69      3.06      0.86
  189               4768.40      2.16      0.45
  191              -1919.28      1.36      0.29
  193              -1781.22      1.26      0.25
  195                274.55      0.78      0.23
  197                187.29      0.53      0.11
  199                 36.86      0.10      0.01
  201               -150.43      0.43      0.08
  202                545.78      3.48      5.95
  203                263.69      1.68      1.55
  204                545.78      1.55      0.83
  205                320.56      0.91      0.31
  207                226.83      0.64      0.16
  209                179.14      1.14      0.76
  211                644.57      1.83      1.12
  213                141.42      0.40      0.07
  215                 59.77      0.17      0.01
  217               -273.03      0.77      0.23
  219               -264.42      0.75      0.22
  221                264.42      1.69      1.56
  223                 -8.76      0.02      0.00
  225                 16.80      0.05      0.00
  229               4768.40      3.38      1.34
  231               4463.27      3.17      1.19
  233               4446.10      3.15      1.37
  235                126.16      0.36      0.05
  237                461.87      1.31      0.61
  238                420.06      1.19      0.51
  239                 62.28      0.18      0.01
  240                420.06      1.19      0.51
  241                420.06      1.19      0.51
  243                418.76      0.67      0.12
  245                331.30      0.53      0.08
  247                270.80      0.43      0.06
  249                132.51      0.21      0.01
  251                 61.98      0.13      0.01
  257                 34.20      0.10      0.00
  261                 39.60      0.25      0.05
  263                 24.72      0.07      0.00
  269                 74.45      0.21      0.02
  271                 81.39      0.52      0.18
  273                -30.36      0.09      0.00
  275                -32.43      0.09      0.00
  277                  6.51      0.02      0.00
  281                -38.94      0.16      0.02
  283                -64.85      0.18      0.02
  285                  8.29      0.02      0.00
  287               -152.79      0.62      0.19
  289                387.96      1.58      1.07
  291                 81.78      0.33      0.06
  293                 92.80      0.59      0.22
  295                -56.56      0.16      0.01
  297                506.40      3.23      5.18
  299                243.32      1.55      1.33
  301                243.32      1.55      1.33
  303                263.07      1.68      1.54
  305                154.97      0.44      0.08
  307                418.04      1.19      0.50
  309                222.32      1.42      1.13
  311               -162.55      0.46      0.09
  313                508.08      1.44      0.72
  315              -2055.77      1.46      0.33
  317                112.03      0.72      0.32
  319                 14.13      0.04      0.00
  321               7635.42      3.47      1.08
  323                -49.75      0.14      0.01
  325                136.49      0.87      0.46
  329              13164.29      5.98      3.01
  330                  0.00      0.00      0.00
  333                 -0.00      0.00      0.00
  10                   0.00      0.00      0.00  Pump
  335              13164.29      0.00    -93.39  Pump
   
   
  Node Results at 0:25:00 hrs:
  --------------------------------------------------------
                     Demand      Head  Pressure  Chemical
  Node                  gpm        ft       psi      mg/L
  --------------------------------------------------------
  10                   0.00    144.33     -1.16      0.00
  15                 579.17    128.98     42.02      0.00
  20                   0.00    158.32     12.71      0.00
  35                1781.22    145.18     57.49      0.00
  40                   0.00    145.09      5.72      0.00
  50                   0.00    139.31      9.88      0.00
  60                   0.00    209.00     90.56      0.00
  601                  0.00    302.40    131.03      0.00
  61                   0.00    302.40    131.03      0.00
  101                284.92    144.33     44.34      0.00
  103                199.80    144.31     43.90      0.00
  105                203.05    145.75     50.81      0.00
  107                 81.96    145.75     53.62      0.00
  109                347.10    144.31     53.73      0.00
  111                212.91    145.20     58.58      0.00
  113                 30.01    145.30     62.09      0.00
  115                 78.15    145.98     57.19      0.00
  117                176.57    149.20     58.75      0.00
  119                264.20    157.27     67.28      0.00
  120                  0.00    154.65     67.01      0.00
  121                 62.44    160.86     70.57      0.00
  123                  0.00    165.32     66.87      0.00
  125                 68.40    160.35     64.72      0.00
  127                 26.49    158.93     44.60      0.00
  129                  0.00    158.91     46.76      0.00
  131                 64.13    158.89     66.25      0.00
  139                  8.84    153.41     53.04      0.00
  141                 14.77    149.52     63.05      0.00
  143                  9.30    139.94     62.59      0.00
  145                 41.44    150.53     64.79      0.00
  147                 12.83    151.33     57.55      0.00
  149                 40.60    151.67     58.79      0.00
  151                216.72    155.14     52.71      0.00
  153                 66.25    155.24     38.58      0.00
  157                 77.68    154.76     61.38      0.00
  159                 61.98    151.31     62.96      0.00
  161                 23.70    148.97     62.82      0.00
  163                 14.13    148.50     62.18      0.00
  164                  0.00    148.50     62.18      0.00
  166                  3.90    148.50     65.21      0.00
  167                 21.84    146.59     65.68      0.00
  169                  0.00    146.59     65.68      0.00
  171                 59.01    145.49     64.78      0.00
  173                  0.00    145.47     64.77      0.00
  177                 87.25    145.18     59.44      0.00
  179                  0.00    145.18     59.44      0.00
  181                  0.00    145.19     59.44      0.00
  183                  0.00    145.18     58.14      0.00
  184                  0.00    143.79     55.37      0.00
  185                 38.47    144.39     55.63      0.00
  187                  0.00    145.02     57.42      0.00
  189                161.88    145.40     61.27      0.00
  191                122.85    145.20     52.08      0.00
  193                106.96    145.31     55.17      0.00
  195                  0.00    145.39     56.28      0.00
  197                 25.56    145.19     52.95      0.00
  199                178.98    140.08     61.56      0.00
  201                 66.92    139.32     60.33      0.00
  203               4446.10    139.16     59.43      0.00
  204                  0.00    144.80     53.64      0.00
  205                 98.04    140.03     51.58      0.00
  206                  0.00    139.06     59.82      0.00
  207                104.08    139.30     56.46      0.00
  208                  0.00    138.79     53.21      0.00
  209                  1.31    138.32     60.80      0.00
  211                 13.01    138.16     56.83      0.00
[...]
  219                 57.85    139.61     58.76      0.00
  225                 31.92    139.62     57.03      0.00
  229                 89.85    139.63     55.95     73.02
  231                 23.07    139.63     58.33      0.00
  237                 21.85    139.69     54.46    130.71
  239                 62.45    139.67     54.88     91.93
  241                  0.00    139.67     54.88     81.46
  243                  6.08    139.66     54.45      0.00
  247                 98.53    139.66     52.72      0.00
  249                  0.00    139.66     52.72      0.00
  251                 33.82    139.66     47.52      0.00
  253                 76.33    139.64     44.91      0.00
  255                 56.55    139.70     48.83      0.00
  257                  0.00    152.99     58.93      0.00
  259                  0.00    152.59     55.28      0.00
  261                  0.00    151.11     65.48      0.00
  263                  0.00    150.95     65.41      0.00
  265                  0.00    149.42     64.74      0.00
  267                  0.00    147.88     54.98      0.00
  269                  0.00    148.27     64.25      0.00
  271                  0.00    147.79     61.44      0.00
  273                  0.00    142.47     58.27      0.00
  275                  0.00    141.77     57.10    178.91
  River           -13184.05    220.00      0.00      0.00  Reservoir
  Lake                 0.00    167.00      0.00      0.00  Reservoir
  1                 -298.73    148.06      7.00      0.00  Tank
  2                 -215.16    140.03     10.19      0.00  Tank
  3                 1169.55    160.25     13.54      0.00  Tank
   
   
  Link Results at 23:55:00 hrs:
  ----------------------------------------------
                       Flow  Velocity  Headloss
  Link                  gpm       fps   /1000ft
  ----------------------------------------------
  20               -1169.55      0.05      0.00
  40                 298.73      0.01      0.00
  50                 215.16      0.01      0.00
  60               13184.05      9.35      8.96
  101                  0.00      0.00      0.00
  103                145.05      0.23      0.02
  105               -410.98      1.17      0.49
  107                 14.76      0.04      0.00
  109                -41.43      0.07      0.00
  111               -365.39      1.04      0.39
  112                451.84      1.28      0.58
  113               -126.71      0.36      0.06
  114                107.01      0.68      0.29
  115                -61.74      0.39      0.11
  116                -47.72      0.14      0.01
  117                615.26      1.75      1.03
  119               -693.53      1.97      1.29
  120               1123.12      3.19      3.14
  121               1002.57      2.84      2.55
  122                350.47      2.24      2.62
  123               9222.75      4.19      1.54
  125              11375.90      5.16      2.27
  129               1744.40      1.24      0.24
  131               1488.11      1.06      0.18
  133              -1169.55      1.19      0.28
  135                293.84      0.21      0.01
  137                 59.85      0.10      0.00
  145                233.99      1.49      1.24
  147                225.75      1.44      1.16
  149               -386.24      2.47      3.14
  151               -377.56      2.41      3.01
  153                174.28      0.49      0.10
  155                212.96      0.60      0.14
  159               -224.93      0.64      0.16
  161               -262.83      1.68      1.54
  163               -130.61      0.37      0.06
  169                192.45      1.23      0.86
  171                334.49      0.95      0.33
  173               7518.56      3.41      1.05
  175               7446.05      3.38      1.04
  177               7388.20      3.35      1.02
  179               7120.62      3.23      0.95
  180                  3.64      0.01      0.00
  181                  3.64      0.01      0.00
  183               6898.92      3.13      0.90
  185                -20.38      0.13      0.01
  186                314.88      2.01      2.15
  187               6290.45      2.86      0.76
  189               4768.52      2.16      0.45
  191              -1466.85      1.04      0.18
  193              -1712.21      1.21      0.23
  195               -122.75      0.35      0.05
  197               -204.19      0.58      0.13
  199                 94.54      0.27      0.03
  201                298.73      0.85      0.27
  202                551.74      3.52      6.07
  203                272.77      1.74      1.65
  204                551.74      1.57      0.84
  205                314.88      0.89      0.30
  207                178.22      0.51      0.10
  209                177.22      1.13      0.74
  211                588.09      1.67      0.95
  213                137.66      0.39      0.06
  215                 41.06      0.12      0.01
  217               -261.73      0.74      0.21
  219               -245.47      0.70      0.19
  221                245.47      1.57      1.35
  223                 -9.41      0.03      0.00
  225                 14.45      0.04      0.00
  229               4768.52      3.38      1.34
  231               4461.88      3.16      1.19
  233               4363.12      3.09      1.33
  235                139.59      0.40      0.07
  237                488.15      1.38      0.67
  238                538.99      1.53      0.81
  239                147.99      0.42      0.07
  240                538.99      1.53      0.81
  241                538.99      1.53      0.81
  243                537.78      0.86      0.20
  245                333.45      0.53      0.08
  247                252.74      0.40      0.05
  249                123.68      0.20      0.01
  251                 57.85      0.12      0.01
  257                 31.92      0.09      0.00
  261                 61.20      0.39      0.10
  263                 23.07      0.07      0.00
  269                192.18      0.55      0.12
  271                 51.73      0.33      0.08
  273                118.60      0.34      0.05
  275                 24.80      0.07      0.00
  277                  6.08      0.02      0.00
  281                 18.72      0.08      0.00
  283                 31.35      0.09      0.00
  285                -29.36      0.08      0.00
  287                -50.45      0.21      0.02
  289                215.16      0.88      0.36
  291                 76.33      0.31      0.05
  293                 31.83      0.20      0.03
  295                  1.99      0.01      0.00
  297                471.01      3.01      4.53
  299                226.32      1.44      1.17
  301                226.32      1.44      1.17
  303                244.69      1.56      1.35
  305                144.25      0.41      0.07
  307                388.94      1.10      0.44
  309                204.87      1.31      0.97
  311               -163.81      0.46      0.09
  313                465.48      1.32      0.61
  315              -1589.46      1.13      0.20
  317                111.68      0.71      0.32
  319                 27.91      0.08      0.00
  321               7103.79      3.22      0.95
  323                 36.31      0.10      0.01
  325                122.61      0.78      0.37
  329              13184.05      5.98      3.02
  330                  0.00      0.00      0.00
  333                 -0.00      0.00      0.00
  10                   0.00      0.00      0.00  Pump
  335              13184.05      0.00    -93.21  Pump
   
   
  Node Results at 24:00:00 hrs:
  --------------------------------------------------------
                     Demand      Head  Pressure  Chemical
  Node                  gpm        ft       psi      mg/L
  --------------------------------------------------------
  10                   0.00    146.94     -0.02      0.00
  15                 579.17    131.15     42.96      0.00
  20                   0.00    160.29     13.56      0.00
  35                1781.22    147.93     58.68      0.00
  40                   0.00    148.03      6.99      0.00
  50                   0.00    139.96     10.16      0.00
  60                   0.00    209.11     90.61      0.00
  601                  0.00    303.15    131.35      0.00
  61                   0.00    303.15    131.35      0.00
  101                284.92    146.94     45.47      0.00
  103                199.80    146.92     45.03    141.08
  105                203.05    148.33     51.92      0.00
  107                 81.96    148.33     54.74     34.88
  109                347.10    146.93     54.87     40.21
  111                212.91    147.84     59.73     38.13
  113                 30.01    147.95     63.24     52.22
  115                 78.15    148.58     58.31      0.00
  117                176.57    151.69     59.83      0.00
  119                264.20    159.54     68.26      0.00
  120                  0.00    156.99     68.03      0.00
  121                 62.44    163.03     71.51      0.00
  123                  0.00    167.44     67.79      0.00
  125                 68.40    162.49     65.64      0.00
  127                 26.49    160.95     45.48      0.00
  129                  0.00    160.94     47.64      0.00
  131                 64.13    160.92     67.12      0.00
  139                  8.84    155.51     53.95      0.00
  141                 14.77    151.69     63.99      0.00
  143                  9.30    142.11     63.52      0.00
  145                 41.44    152.71     65.74      0.00
  147                 12.83    153.52     58.50      0.00
  149                 40.60    153.87     59.74      0.00
  151                216.72    157.38     53.68      0.00
  153                 66.25    157.47     39.55      0.00
  157                 77.68    157.12     62.40      0.00
  159                 61.98    153.79     64.04      0.00
  161                 23.70    151.53     63.93      0.00
  163                 14.13    151.08     63.30      0.00
  164                  0.00    151.08     63.30      0.00
  166                  3.90    151.08     66.33      0.00
  167                 21.84    149.23     66.83      0.00
  169                  0.00    149.23     66.83      0.00
  171                 59.01    148.17     65.94      0.00
  173                  0.00    148.15     65.93      0.00
  177                 87.25    147.94     60.63      0.00
  179                  0.00    147.94     60.63      0.00
  181                  0.00    147.94     60.63      0.00
  183                  0.00    147.93     59.33      6.57
  184                  0.00    146.42     56.51     48.35
  185                 38.47    147.05     56.78     47.36
  187                  0.00    147.68     58.57     84.77
  189                161.88    148.09     62.43     14.56
  191                122.85    147.84     53.23      0.00
  193                106.96    147.97     56.31      0.00
  195                  0.00    148.04     57.43      0.00
  197                 25.56    147.84     54.09    169.36
  199                178.98    142.51     62.62      0.00
  201                 66.92    141.73     61.37      0.00
  203               4446.10    141.57     60.47      0.00
  204                  0.00    147.46     54.79     83.54
  205                 98.04    142.45     52.63    130.92
  206                  0.00    141.21     60.75    150.79
  207                104.08    141.60     57.46    153.76
  208                  0.00    140.77     54.06    149.60
  209                  1.31    140.00     61.53    147.55
  211                 13.01    139.74     57.52    166.08
  213                 20.91    139.65     57.48    128.75
  215                138.29    139.42     57.38      0.00
  217                 36.33    139.39     57.80      0.00
  219                 61.98    139.38     58.66      0.00
  225                 34.20    139.38     56.93      0.00
  229                 96.27    139.42     55.86     74.69
  231                 24.72    139.41     58.24      0.00
  237                 23.42    139.50     54.38    130.62
  239                 66.92    139.47     54.80     97.50
  241                  0.00    139.47     54.80     89.52
  243                  6.51    139.47     54.37      0.00
  247                105.57    139.47     52.63      0.00
  249                  0.00    139.47     52.63      0.00
  251                 36.24    139.47     47.43      0.00
  253                 81.78    139.46     44.83      0.00
  255                 60.58    139.53     48.76      0.00
  257                  0.00    153.74     59.25      0.00
  259                  0.00    153.28     55.58      0.00
  261                  0.00    151.64     65.70      0.00
  263                  0.00    151.46     65.63      0.00
  265                  0.00    149.82     64.92      0.00
  267                  0.00    148.09     55.07      0.00
  269                  0.00    148.54     64.36      0.00
  271                  0.00    148.00     61.53      0.00
  273                  0.00    142.46     58.26      0.00
  275                  0.00    141.73     57.08    172.29
  River           -13091.10    220.00      0.00      0.00  Reservoir
  Lake                 0.00    167.00      0.00      0.00  Reservoir
  1                 -153.37    148.03      6.99      0.00  Tank
  2                 -247.40    139.96     10.16      0.00  Tank
  3                 2113.22    160.29     13.56      0.00  Tank
   
   
  Link Results at 24:00:00 hrs:
  ----------------------------------------------
                       Flow  Velocity  Headloss
  Link                  gpm       fps   /1000ft
  ----------------------------------------------
  20               -2113.22      0.09      0.00
  40                 153.37      0.01      0.00
  50                 247.40      0.01      0.00
  60               13091.10      9.28      8.84
  101                  0.00      0.00      0.00
  103                151.31      0.24      0.02
  105               -436.24      1.24      0.55
  107                 13.39      0.04      0.00
  109                -48.49      0.08      0.00
  111               -395.59      1.12      0.45
  112                474.57      1.35      0.64
  113               -137.29      0.39      0.06
  114                111.82      0.71      0.32
  115                -68.57      0.44      0.13
  116                -55.49      0.16      0.01
  117                652.68      1.85      1.15
  119               -733.10      2.08      1.43
  120               1189.14      3.37      3.49
  121               1062.96      3.02      2.84
  122                373.21      2.38      2.94
  123               9863.10      4.48      1.74
  125              13091.10      5.94      2.94
  129               2792.34      1.98      0.58
  131               2504.56      1.78      0.47
  133              -2113.22      2.16      0.84
  135                364.85      0.26      0.01
  137                 64.13      0.10      0.00
  145                300.72      1.92      1.97
  147                291.89      1.86      1.87
  149               -588.47      3.76      6.84
  151               -579.17      3.70      6.64
  153                311.36      0.88      0.29
  155                352.80      1.00      0.37
  159               -365.63      1.04      0.39
  161               -406.23      2.59      3.44
  163               -153.13      0.43      0.08
  169                219.39      1.40      1.10
  171                469.82      1.33      0.63
  173               7939.95      3.60      1.17
  175               7862.26      3.57      1.14
  177               7800.28      3.54      1.13
  179               7515.67      3.41      1.05
  180                  3.90      0.01      0.00
  181                  3.90      0.01      0.00
  183               7279.02      3.30      0.99
  185                -21.84      0.14      0.02
  186                321.45      2.05      2.23
  187               6627.56      3.01      0.83
  189               4891.60      2.22      0.48
  191              -1676.94      1.19      0.23
  193              -1781.22      1.26      0.25
  195                 25.39      0.07      0.00
  197                -61.87      0.18      0.01
  199                 91.50      0.26      0.03
  201                153.37      0.44      0.08
  202                563.13      3.59      6.31
  203                280.16      1.79      1.73
  204                563.13      1.60      0.88
  205                321.45      0.91      0.31
  207                188.66      0.54      0.12
  209                185.95      1.19      0.81
  211                629.63      1.79      1.08
  213                135.50      0.38      0.06
  215                 36.53      0.10      0.01
  217               -280.55      0.80      0.24
  219               -260.91      0.74      0.21
  221                260.91      1.67      1.52
  223                -22.20      0.06      0.00
  225                  3.36      0.01      0.00
  229               4891.60      3.47      1.41
  231               4561.70      3.24      1.24
  233               4446.10      3.15      1.37
  235                150.92      0.43      0.08
  237                502.20      1.42      0.71
  238                560.62      1.59      0.87
  239                162.50      0.46      0.09
  240                560.62      1.59      0.87
  241                560.62      1.59      0.87
  243                559.31      0.89      0.21
  245                353.92      0.56      0.09
  247                270.80      0.43      0.06
  249                132.51      0.21      0.01
  251                 61.98      0.13      0.01
  257                 34.20      0.10      0.00
  261                 62.21      0.40      0.11
  263                 24.72      0.07      0.00
  269                192.39      0.55      0.12
  271                 58.78      0.38      0.10
  273                110.20      0.31      0.04
  275                 20.26      0.06      0.00
  277                  6.51      0.02      0.00
  281                 13.75      0.06      0.00
  283                 23.03      0.07      0.00
  285                -27.37      0.08      0.00
  287                -64.45      0.26      0.04
  289                247.40      1.01      0.46
  291                 81.78      0.33      0.06
  293                 40.59      0.26      0.05
  295                 -4.35      0.01      0.00
  297                499.39      3.19      5.05
  299                239.97      1.53      1.30
  301                239.97      1.53      1.30
  303                259.42      1.66      1.50
  305                153.29      0.43      0.08
  307                412.71      1.17      0.49
  309                218.62      1.40      1.09
  311               -182.09      0.52      0.11
  313                499.96      1.42      0.70
  315              -1806.61      1.28      0.26
  317                113.81      0.73      0.33
  319                 37.11      0.11      0.01
  321               7497.64      3.40      1.05
  323                 48.69      0.14      0.01
  325                129.67      0.83      0.42
  329              13091.10      5.94      2.98
  330                  0.00      0.00      0.00
  333                 -0.00      0.00      0.00
  10                   0.00      0.00      0.00  Pump
  335              13091.10      0.00    -94.03  Pump
   
  Analysis ended Wed May 06 18:01:48 2020
