  Page 1                                    Wed May 06 18:05:59 2020

  ******************************************************************
  *                           E P A N E T                          *
  *                   Hydraulic and Water Quality                  *
  *                   Analysis for Pipe Networks                   *
  *                         Version 2.00.12                        *
  ******************************************************************
  
  Analysis begun Wed May 06 18:05:59 2020

   
  Hydraulic Status:
  -----------------------------------------------------------------------
     0:00:00: Balanced after 5 trials
     0:00:00: Reservoir River is emptying
     0:00:00: Reservoir Lake is closed
     0:00:00: Tank 1 is filling at 13.10 ft
     0:00:00: Tank 2 is emptying at 23.50 ft
     0:00:00: Tank 3 is filling at 29.00 ft
   
     0:05:00: Balanced after 2 trials
   
     0:10:00: Balanced after 2 trials
   
     0:15:00: Balanced after 2 trials
   
     0:20:00: Balanced after 2 trials
   
     0:25:00: Balanced after 2 trials
   
     0:30:00: Balanced after 1 trials
   
     0:35:00: Balanced after 1 trials
   
     0:40:00: Balanced after 1 trials
   
     0:45:00: Balanced after 1 trials
   
     0:50:00: Balanced after 1 trials
   
     0:55:00: Balanced after 1 trials
   
     1:00:00: Pump 10 changed by timer control
     1:00:00: Balanced after 7 trials
     1:00:00: Reservoir Lake is emptying
     1:00:00: Pump 10 changed from closed to open
   
     1:05:00: Balanced after 2 trials
   
     1:10:00: Balanced after 2 trials
   
     1:15:00: Balanced after 2 trials
   
     1:20:00: Balanced after 2 trials
   
     1:25:00: Balanced after 2 trials
   
     1:30:00: Balanced after 2 trials
   
     1:35:00: Balanced after 2 trials
   
     1:40:00: Balanced after 2 trials
   
     1:45:00: Balanced after 2 trials
   
     1:50:00: Balanced after 2 trials
   
     1:55:00: Balanced after 2 trials
   
     2:00:00: Balanced after 3 trials
   
     2:05:00: Balanced after 1 trials
   
     2:10:00: Balanced after 1 trials
   
     2:15:00: Balanced after 1 trials
   
     2:20:00: Balanced after 1 trials
   
     2:25:00: Balanced after 1 trials
     2:25:00: Tank 2 is closed at 22.09 ft
   
     2:30:00: Balanced after 1 trials
     2:30:00: Tank 2 is filling at 22.09 ft
   
     2:35:00: Balanced after 1 trials
   
     2:40:00: Balanced after 1 trials
   
     2:45:00: Balanced after 1 trials
   
     2:50:00: Balanced after 1 trials
   
     2:55:00: Balanced after 1 trials
   
     3:00:00: Balanced after 3 trials
     3:00:00: Tank 2 is emptying at 22.12 ft
   
     3:05:00: Balanced after 1 trials
   
     3:10:00: Balanced after 1 trials
   
     3:15:00: Balanced after 1 trials
     3:15:00: Tank 2 is closed at 22.11 ft
   
     3:20:00: Balanced after 1 trials
     3:20:00: Tank 2 is filling at 22.11 ft
   
     3:25:00: Balanced after 1 trials
   
     3:30:00: Balanced after 1 trials
   
     3:35:00: Balanced after 1 trials
   
     3:40:00: Balanced after 1 trials
   
     3:45:00: Balanced after 1 trials
   
     3:50:00: Balanced after 1 trials
   
     3:55:00: Balanced after 1 trials
   
     4:00:00: Balanced after 3 trials
   
     4:05:00: Balanced after 1 trials
   
     4:10:00: Balanced after 1 trials
   
     4:15:00: Balanced after 1 trials
   
     4:17:19: Pump 335 changed by Tank 1 control
     4:17:19: Pipe 330 changed by Tank 1 control
     4:17:19: Balanced after 4 trials
     4:17:19: Pipe 330 changed from closed to open
     4:17:19: Pump 335 changed from open to closed
   
     4:20:00: Balanced after 1 trials
   
     4:25:00: Balanced after 2 trials
   
     4:30:00: Balanced after 2 trials
   
     4:35:00: Balanced after 2 trials
   
     4:40:00: Balanced after 2 trials
   
     4:45:00: Balanced after 2 trials
   
     4:50:00: Balanced after 2 trials
   
     4:55:00: Balanced after 2 trials
   
     5:00:00: Balanced after 3 trials
     5:00:00: Tank 3 is emptying at 34.30 ft
   
     5:05:00: Balanced after 2 trials
   
     5:10:00: Balanced after 2 trials
   
     5:15:00: Balanced after 2 trials
   
     5:20:00: Balanced after 2 trials
   
     5:25:00: Balanced after 2 trials
   
     5:30:00: Balanced after 2 trials
   
     5:35:00: Balanced after 2 trials
   
     5:40:00: Balanced after 2 trials
   
     5:45:00: Balanced after 2 trials
   
     5:50:00: Balanced after 2 trials
   
     5:55:00: Balanced after 2 trials
   
     6:00:00: Balanced after 3 trials
     6:00:00: Tank 3 is filling at 34.05 ft
   
     6:05:00: Balanced after 2 trials
   
     6:10:00: Balanced after 2 trials
   
     6:15:00: Balanced after 2 trials
   
     6:20:00: Balanced after 2 trials
   
     6:25:00: Balanced after 2 trials
   
     6:30:00: Balanced after 2 trials
   
     6:35:00: Balanced after 1 trials
   
     6:40:00: Balanced after 1 trials
   
     6:45:00: Balanced after 1 trials
   
     6:50:00: Balanced after 1 trials
   
     6:55:00: Balanced after 1 trials
   
     7:00:00: Balanced after 3 trials
   
     7:05:00: Balanced after 1 trials
   
     7:10:00: Balanced after 1 trials
   
     7:15:00: Balanced after 1 trials
   
     7:20:00: Balanced after 1 trials
   
     7:25:00: Balanced after 1 trials
   
     7:30:00: Balanced after 1 trials
   
     7:35:00: Balanced after 1 trials
   
     7:40:00: Balanced after 1 trials
   
     7:45:00: Balanced after 1 trials
   
     7:50:00: Balanced after 1 trials
   
     7:55:00: Balanced after 1 trials
   
     8:00:00: Balanced after 3 trials
   
     8:05:00: Balanced after 1 trials
   
     8:10:00: Balanced after 1 trials
   
     8:15:00: Balanced after 1 trials
   
     8:20:00: Balanced after 1 trials
   
     8:25:00: Balanced after 1 trials
   
     8:30:00: Balanced after 1 trials
   
     8:35:00: Balanced after 1 trials
   
     8:40:00: Balanced after 1 trials
   
     8:45:00: Balanced after 1 trials
   
     8:50:00: Balanced after 1 trials
   
     8:55:00: Balanced after 1 trials
   
     9:00:00: Balanced after 4 trials
     9:00:00: Tank 3 is emptying at 35.31 ft
   
     9:05:00: Balanced after 2 trials
   
     9:10:00: Balanced after 2 trials
   
     9:15:00: Balanced after 2 trials
   
     9:20:00: Balanced after 2 trials
   
     9:25:00: Balanced after 2 trials
   
     9:30:00: Balanced after 2 trials
   
     9:35:00: Balanced after 2 trials
   
     9:40:00: Balanced after 2 trials
   
     9:45:00: Balanced after 2 trials
   
     9:50:00: Balanced after 2 trials
   
     9:55:00: Balanced after 2 trials
   
    10:00:00: Balanced after 4 trials
    10:00:00: Tank 1 is emptying at 23.15 ft
   
    10:05:00: Balanced after 1 trials
   
    10:10:00: Balanced after 1 trials
   
    10:15:00: Balanced after 1 trials
   
    10:20:00: Balanced after 1 trials
   
    10:25:00: Balanced after 1 trials
   
    10:30:00: Balanced after 1 trials
   
    10:35:00: Balanced after 1 trials
   
    10:40:00: Balanced after 1 trials
   
    10:45:00: Balanced after 1 trials
   
    10:50:00: Balanced after 1 trials
   
    10:55:00: Balanced after 1 trials
   
    11:00:00: Balanced after 4 trials
    11:00:00: Tank 2 is emptying at 28.60 ft
   
    11:05:00: Balanced after 1 trials
   
    11:10:00: Balanced after 1 trials
   
    11:15:00: Balanced after 1 trials
   
    11:20:00: Balanced after 1 trials
   
    11:25:00: Balanced after 1 trials
   
    11:30:00: Balanced after 1 trials
   
    11:35:00: Balanced after 1 trials
   
    11:40:00: Balanced after 1 trials
   
    11:45:00: Balanced after 1 trials
   
    11:50:00: Balanced after 1 trials
   
    11:55:00: Balanced after 1 trials
   
    12:00:00: Balanced after 3 trials
    12:00:00: Tank 2 is filling at 27.42 ft
   
    12:05:00: Balanced after 1 trials
   
    12:10:00: Balanced after 1 trials
   
    12:15:00: Balanced after 1 trials
   
    12:20:00: Balanced after 1 trials
   
    12:25:00: Balanced after 1 trials
   
    12:30:00: Balanced after 1 trials
   
    12:35:00: Balanced after 1 trials
   
    12:40:00: Balanced after 1 trials
   
    12:45:00: Balanced after 1 trials
    12:45:00: Tank 2 is emptying at 27.44 ft
   
    12:50:00: Balanced after 1 trials
   
    12:55:00: Balanced after 1 trials
   
    13:00:00: Balanced after 3 trials
   
    13:05:00: Balanced after 1 trials
   
    13:10:00: Balanced after 1 trials
   
    13:15:00: Balanced after 1 trials
   
    13:20:00: Balanced after 1 trials
   
    13:25:00: Balanced after 1 trials
   
    13:30:00: Balanced after 1 trials
   
    13:35:00: Balanced after 1 trials
   
    13:40:00: Balanced after 1 trials
   
    13:45:00: Balanced after 1 trials
   
    13:50:00: Balanced after 1 trials
   
    13:55:00: Balanced after 1 trials
   
    14:00:00: Balanced after 4 trials
    14:00:00: Tank 1 is filling at 21.24 ft
    14:00:00: Tank 2 is filling at 26.85 ft
   
    14:05:00: Balanced after 2 trials
   
    14:10:00: Balanced after 2 trials
   
    14:15:00: Balanced after 2 trials
   
    14:20:00: Balanced after 2 trials
   
    14:25:00: Balanced after 2 trials
   
    14:30:00: Balanced after 2 trials
   
    14:35:00: Balanced after 2 trials
   
    14:40:00: Balanced after 2 trials
   
    14:45:00: Balanced after 2 trials
   
    14:50:00: Balanced after 2 trials
   
    14:55:00: Balanced after 2 trials
   
    15:00:00: Pump 10 changed by timer control
    15:00:00: Balanced after 5 trials
    15:00:00: Reservoir Lake is closed
    15:00:00: Tank 1 is emptying at 21.88 ft
    15:00:00: Tank 2 is emptying at 27.69 ft
    15:00:00: Pump 10 changed from open to closed
   
    15:05:00: Balanced after 2 trials
   
    15:10:00: Balanced after 2 trials
   
    15:15:00: Balanced after 2 trials
   
    15:20:00: Balanced after 1 trials
   
    15:25:00: Balanced after 1 trials
   
    15:30:00: Balanced after 1 trials
   
    15:35:00: Balanced after 1 trials
   
    15:40:00: Balanced after 1 trials
   
    15:45:00: Balanced after 1 trials
   
    15:50:00: Balanced after 1 trials
   
    15:55:00: Balanced after 1 trials
   
    16:00:00: Balanced after 3 trials
    16:00:00: Tank 2 is filling at 27.24 ft
   
    16:05:00: Balanced after 2 trials
   
    16:10:00: Balanced after 2 trials
   
    16:15:00: Balanced after 2 trials
    16:15:00: Tank 2 is emptying at 27.25 ft
   
    16:20:00: Balanced after 2 trials
   
    16:25:00: Balanced after 2 trials
   
    16:30:00: Balanced after 2 trials
   
    16:35:00: Balanced after 2 trials
   
    16:40:00: Balanced after 2 trials
   
    16:45:00: Balanced after 2 trials
   
    16:50:00: Balanced after 2 trials
   
    16:55:00: Balanced after 2 trials
   
    17:00:00: Balanced after 3 trials
   
    17:05:00: Balanced after 1 trials
   
    17:10:00: Balanced after 1 trials
   
    17:15:00: Balanced after 1 trials
   
    17:20:00: Balanced after 1 trials
   
    17:25:00: Balanced after 1 trials
   
    17:30:00: Balanced after 1 trials
   
    17:35:00: Balanced after 1 trials
   
    17:40:00: Balanced after 1 trials
   
    17:45:00: Balanced after 1 trials
   
    17:50:00: Balanced after 1 trials
   
    17:55:00: Balanced after 1 trials
   
    18:00:00: Balanced after 3 trials
   
    18:05:00: Balanced after 1 trials
   
    18:10:00: Balanced after 1 trials
   
    18:15:00: Balanced after 1 trials
   
    18:20:00: Balanced after 1 trials
   
    18:25:00: Balanced after 1 trials
   
    18:30:00: Balanced after 1 trials
   
    18:35:00: Balanced after 1 trials
   
    18:40:00: Balanced after 1 trials
   
    18:45:00: Balanced after 1 trials
   
    18:50:00: Balanced after 1 trials
   
    18:55:00: Balanced after 1 trials
   
    19:00:00: Balanced after 3 trials
   
    19:05:00: Balanced after 2 trials
   
    19:10:00: Balanced after 1 trials
   
    19:15:00: Balanced after 1 trials
   
    19:20:00: Balanced after 1 trials
   
    19:25:00: Balanced after 1 trials
   
    19:30:00: Balanced after 1 trials
   
    19:35:00: Balanced after 1 trials
   
    19:40:00: Balanced after 1 trials
   
    19:45:00: Balanced after 1 trials
   
    19:50:00: Balanced after 1 trials
   
    19:55:00: Balanced after 1 trials
   
    20:00:00: Balanced after 3 trials
    20:00:00: Tank 2 is filling at 25.75 ft
   
    20:05:00: Balanced after 2 trials
   
    20:10:00: Balanced after 1 trials
   
    20:15:00: Balanced after 1 trials
   
    20:15:17: Pump 335 changed by Tank 1 control
    20:15:17: Pipe 330 changed by Tank 1 control
    20:15:17: Balanced after 5 trials
    20:15:17: Tank 1 is filling at 17.10 ft
    20:15:17: Tank 3 is filling at 30.09 ft
    20:15:17: Pipe 330 changed from open to closed
    20:15:17: Pump 335 changed from closed to open
   
    20:20:00: Balanced after 1 trials
   
    20:25:00: Balanced after 1 trials
   
    20:30:00: Balanced after 1 trials
   
    20:35:00: Balanced after 1 trials
   
    20:40:00: Balanced after 1 trials
   
    20:45:00: Balanced after 1 trials
   
    20:50:00: Balanced after 1 trials
   
    20:55:00: Balanced after 1 trials
   
    21:00:00: Balanced after 3 trials
    21:00:00: Tank 2 is emptying at 26.11 ft
   
    21:05:00: Balanced after 2 trials
   
    21:10:00: Balanced after 2 trials
   
    21:15:00: Balanced after 2 trials
   
    21:20:00: Balanced after 2 trials
   
    21:25:00: Balanced after 2 trials
   
    21:30:00: Balanced after 2 trials
   
    21:35:00: Balanced after 2 trials
   
    21:40:00: Balanced after 2 trials
   
    21:45:00: Balanced after 2 trials
   
    21:50:00: Balanced after 2 trials
   
    21:55:00: Balanced after 2 trials
   
    22:00:00: Balanced after 3 trials
   
    22:05:00: Balanced after 2 trials
   
    22:10:00: Balanced after 2 trials
   
    22:15:00: Balanced after 2 trials
   
    22:20:00: Balanced after 2 trials
   
    22:25:00: Balanced after 2 trials
   
    22:30:00: Balanced after 2 trials
   
    22:35:00: Balanced after 2 trials
   
    22:40:00: Balanced after 2 trials
   
    22:45:00: Balanced after 2 trials
   
    22:50:00: Balanced after 1 trials
   
    22:55:00: Balanced after 1 trials
   
    23:00:00: Balanced after 4 trials
    23:00:00: Tank 1 is emptying at 18.06 ft
   
    23:05:00: Balanced after 2 trials
   
    23:10:00: Balanced after 2 trials
   
    23:15:00: Balanced after 2 trials
   
    23:20:00: Balanced after 2 trials
   
    23:25:00: Balanced after 2 trials
   
    23:30:00: Balanced after 2 trials
   
    23:35:00: Balanced after 2 trials
   
    23:40:00: Balanced after 2 trials
   
    23:45:00: Balanced after 2 trials
   
    23:50:00: Balanced after 2 trials
   
    23:55:00: Balanced after 2 trials
   
    24:00:00: Balanced after 4 trials
    24:00:00: Tank 1 is filling at 17.22 ft
    24:00:00: Tank 2 is filling at 24.28 ft
   
   
  Node Results at 0:00:00 hrs:
  --------------------------------------------------------
                     Demand      Head  Pressure  Chemical
  Node                  gpm        ft       psi      mg/L
  --------------------------------------------------------
  10                   0.00    147.73      0.32      0.00
  15                 732.77    115.99     36.39      0.00
  20                   0.00    158.00     12.57      0.00
  35                1673.14    146.94     58.25      0.00
  40                   0.00    145.00      5.68      0.00
  50                   0.00    140.00     10.18      0.00
  60                   0.00    209.05     90.58      0.00
  601                  0.00    302.69    131.15      0.00
  61                   0.00    302.69    131.15      0.00
  101                205.15    147.73     45.81      0.00
  103                143.86    147.69     45.36      0.00
  105                146.20    148.86     52.15      0.00
  107                 59.01    148.84     54.96      0.00
  109                249.91    147.69     55.20      0.00
  111                153.30    147.96     59.78      0.00
  113                 21.61    147.96     63.24      0.00
  115                 56.27    148.84     58.43      0.00
  117                127.13    151.74     59.86      0.00
  119                190.22    158.41     67.77      0.00
  120                  0.00    156.27     67.71      0.00
  121                 44.96    161.69     70.93      0.00
  123                  0.00    166.13     67.22      0.00
  125                 49.25    160.99     64.99      0.00
  127                 19.07    158.93     44.60      0.00
  129                  0.00    158.91     46.76      0.00
  131                 46.17    158.90     66.25      0.00
  139                  6.36    152.31     52.56      0.00
  141                 10.64    147.56     62.20      0.00
  143                  6.70    132.93     59.55      0.00
  145                 29.84    149.36     64.28      0.00
  147                  9.23    150.64     57.26      0.00
  149                 29.24    151.17     58.57      0.00
  151                156.04    156.15     53.14      0.00
  153                 47.70    156.25     39.02      0.00
  157                 55.93    156.07     61.95      0.00
  159                 44.63    152.85     63.63      0.00
  161                 17.06    150.65     63.54      0.00
  163                 10.17    150.21     62.92      0.00
  164                  0.00    150.21     62.92      0.00
  166                  2.81    150.21     65.95      0.00
  167                 15.72    148.39     66.46      0.00
  169                  0.00    148.39     66.46      0.00
  171                 42.49    147.32     65.56      0.00
  173                  0.00    147.29     65.56      0.00
  177                 62.82    146.91     60.19      0.00
  179                  0.00    146.88     60.18      0.00
  181                  0.00    146.94     60.20      0.00
  183                  0.00    146.92     58.89      0.00
  184                  0.00    145.94     56.31      0.00
  185                 27.70    146.50     56.55      0.00
  187                  0.00    147.32     58.42      0.00
  189                116.55    147.55     62.20      0.00
  191                 88.45    147.76     53.19      0.00
  193                 77.01    147.84     56.26      0.00
  195                  0.00    147.90     57.37      0.00
  197                 18.40    147.81     54.08      0.00
  199                128.87    142.46     62.60      0.00
  201                 48.18    141.77     61.39      0.00
  203               4216.02    141.62     60.50      0.00
  204                  0.00    147.03     54.61      0.00
  205                 70.59    142.43     52.62      0.00
  206                  0.00    141.41     60.84      0.00
  207                 74.94    141.72     57.51      0.00
  208                  0.00    141.07     54.19      0.00
  209                  0.94    140.47     61.73      0.00
  211                  9.36    140.27     57.75      0.00
  213                 15.06    140.21     57.72      0.00
  215                 99.57    140.09     57.67      0.00
  217                 26.16    140.07     58.09      0.00
  219                 44.63    140.06     58.96      0.00
  225                 24.62    140.07     57.23      0.00
  229                 69.31    139.97     56.10      0.00
  231                 17.80    139.97     58.48      0.00
  237                 16.86    139.99     54.59      0.00
  239                 48.18    139.94     55.00      0.00
  241                  0.00    139.94     55.00      0.00
  243                  4.69    139.94     54.57      0.00
  247                 76.01    139.93     52.83      0.00
  249                  0.00    139.93     52.83      0.00
  251                 26.09    139.93     47.63      0.00
  253                 58.88    139.90     45.02      0.00
  255                 43.62    139.93     48.93      0.00
  257                  0.00    153.49     59.14      0.00
  259                  0.00    153.10     55.51      0.00
  261                  0.00    151.70     65.73      0.00
  263                  0.00    151.55     65.67      0.00
  265                  0.00    148.97     64.55      0.00
  267                  0.00    147.81     54.95      0.00
  269                  0.00    147.84     64.06      0.00
  271                  0.00    147.05     61.12      0.00
  273                  0.00    142.43     58.25      0.00
  275                  0.00    141.77     57.10      0.00
  River           -13135.52    220.00      0.00      0.00  Reservoir
  Lake                 0.00    167.00      0.00      0.00  Reservoir
  1                  775.73    145.00      5.68      0.00  Tank
  2                  -92.29    140.00     10.18      0.00  Tank
  3                 2538.19    158.00     12.57      0.00  Tank
   
   
  Link Results at 0:00:00 hrs:
  ----------------------------------------------
                       Flow  Velocity  Headloss
  Link                  gpm       fps   /1000ft
  ----------------------------------------------
  20               -2538.19      0.11      0.00
  40                -775.73      0.03      0.00
  50                  92.29      0.00      0.00
  60               13135.52      9.32      8.90
  101                  0.00      0.00      0.00
  103                186.05      0.30      0.03
  105               -391.19      1.11      0.45
  107                 63.22      0.18      0.02
  109                 42.19      0.07      0.00
  111               -207.72      0.59      0.14
  112                520.26      1.48      0.76
  113                 32.68      0.09      0.00
  114                134.07      0.86      0.44
  115                  4.20      0.03      0.00
  116                145.14      0.41      0.07
  117                600.61      1.70      0.99
  119               -706.39      2.00      1.33
  120               1082.07      3.07      2.93
  121                975.67      2.77      2.42
  122                352.06      2.25      2.64
  123               9538.68      4.33      1.64
  125              13135.52      5.96      2.96
  129               3199.83      2.27      0.75
  131               2937.84      2.08      0.64
  133              -2538.19      2.59      1.18
  135                380.58      0.27      0.01
  137                 46.17      0.07      0.00
  145                334.41      2.13      2.40
  147                328.05      2.09      2.32
  149               -739.47      4.72     10.44
  151               -732.77      4.68     10.27
  153                422.05      1.20      0.51
  155                451.89      1.28      0.58
  159               -461.13      1.31      0.60
  161               -490.36      3.13      4.88
  163               -165.03      0.47      0.09
  169                212.73      1.36      1.04
  171                481.37      1.37      0.65
  173               7785.01      3.53      1.12
  175               7729.08      3.51      1.11
  177               7684.45      3.49      1.10
  179               7437.78      3.38      1.03
  180                  2.81      0.01      0.00
  181                  2.81      0.01      0.00
  183               7248.18      3.29      0.98
  185                -15.72      0.10      0.01
  186                369.40      2.36      2.89
  187               6678.12      3.03      0.85
  189               4500.54      2.04      0.41
  191              -2135.10      1.51      0.35
  193              -1673.14      1.19      0.22
  195                622.25      1.77      1.05
  197                559.42      1.59      0.86
  199               -216.31      0.61      0.15
  201               -775.73      2.20      1.58
  202                527.54      3.37      5.59
  203                185.84      1.19      0.81
  204                527.54      1.50      0.78
  205                369.40      1.05      0.40
  207                402.15      1.14      0.47
  209                135.83      0.87      0.45
  211                554.33      1.57      0.85
  213                233.56      0.66      0.17
  215                260.50      0.74      0.21
  217               -213.85      0.61      0.15
  219               -229.60      0.65      0.17
  221                229.60      1.47      1.20
  223                108.16      0.31      0.04
  225                126.57      0.36      0.06
  229               4500.54      3.19      1.21
  231               4263.00      3.02      1.09
  233               4216.02      2.99      1.24
  235                108.67      0.31      0.04
  237                457.81      1.30      0.60
  238                489.48      1.39      0.67
  239                106.61      0.30      0.04
  240                489.48      1.39      0.67
  241                489.48      1.39      0.67
  243                488.54      0.78      0.17
  245                273.18      0.44      0.06
  247                194.97      0.31      0.03
  249                 95.41      0.15      0.01
  251                 44.63      0.09      0.00
  257                 24.62      0.07      0.00
  261                 63.15      0.40      0.11
  263                 17.80      0.05      0.00
  269                206.00      0.58      0.14
  271                 23.97      0.15      0.02
  273                165.18      0.47      0.09
  275                 46.76      0.13      0.01
  277                  4.69      0.01      0.00
  281                 42.07      0.17      0.02
  283                 70.24      0.20      0.02
  285                -49.22      0.14      0.01
  287                 15.29      0.06      0.00
  289                 92.29      0.38      0.07
  291                 58.88      0.24      0.03
  293                  5.08      0.03      0.00
  295                 21.02      0.06      0.00
  297                458.46      2.93      4.31
  299                220.33      1.41      1.11
  301                220.33      1.41      1.11
  303                238.13      1.52      1.28
  305                142.15      0.40      0.07
  307                380.28      1.08      0.42
  309                176.62      1.13      0.74
  311                 83.88      0.24      0.03
  313                394.04      1.12      0.45
  315              -2295.39      1.63      0.40
  317                107.80      0.69      0.30
  319                  0.86      0.00      0.00
  321               7424.80      3.37      1.03
  323                 -1.19      0.00      0.00
  325                160.29      1.02      0.62
  329              13135.52      5.96      3.00
  330                  0.00      0.00      0.00
  333                 -0.00      0.00      0.00
  10                   0.00      0.00      0.00  Pump
  335              13135.52      0.00    -93.64  Pump
   
   
  Node Results at 0:05:00 hrs:
  --------------------------------------------------------
                     Demand      Head  Pressure  Chemical
  Node                  gpm        ft       psi      mg/L
  --------------------------------------------------------
  10                   0.00    147.80      0.35      0.00
  15                 732.77    116.06     36.42      0.00
  20                   0.00    158.08     12.60      0.00
  35                1673.14    147.00     58.28      0.00
  40                   0.00    145.09      5.72      0.00
  50                   0.00    139.97     10.17      0.00
  60                   0.00    209.05     90.58      0.00
  601                  0.00    302.71    131.16      0.00
  61                   0.00    302.71    131.16      0.00
  101                205.15    147.80     45.84      0.00
  103                143.86    147.76     45.39      0.00
  105                146.20    148.93     52.18      0.00
  107                 59.01    148.91     54.99      0.00
  109                249.91    147.75     55.23      0.00
  111                153.30    148.03     59.81      0.00
  113                 21.61    148.02     63.27      0.00
  115                 56.27    148.91     58.45      0.00
  117                127.13    151.81     59.89      0.00
  119                190.22    158.48     67.80      0.00
  120                  0.00    156.34     67.74      0.00
  121                 44.96    161.76     70.96      0.00
  123                  0.00    166.20     67.25      0.00
  125                 49.25    161.06     65.02      0.00
  127                 19.07    159.00     44.63      0.00
  129                  0.00    158.99     46.79      0.00
  131                 46.17    158.98     66.29      0.00
  139                  6.36    152.38     52.60      0.00
  141                 10.64    147.63     62.23      0.00
  143                  6.70    133.01     59.58      0.00
  145                 29.84    149.43     64.31      0.00
  147                  9.23    150.71     57.29      0.00
  149                 29.24    151.24     58.60      0.00
  151                156.04    156.22     53.17      0.00
  153                 47.70    156.32     39.05      0.00
  157                 55.93    156.14     61.98      0.00
  159                 44.63    152.91     63.66      0.00
  161                 17.06    150.72     63.57      0.00
  163                 10.17    150.27     62.95      0.00
  164                  0.00    150.27     62.95      0.00
  166                  2.81    150.27     65.98      0.00
  167                 15.72    148.45     66.49      0.00
  169                  0.00    148.45     66.49      0.00
  171                 42.49    147.38     65.59      0.00
  173                  0.00    147.36     65.58      0.00
  177                 62.82    146.98     60.22      0.00
  179                  0.00    146.95     60.21      0.00
  181                  0.00    147.01     60.23      0.00
  183                  0.00    146.98     58.92      0.00
  184                  0.00    146.01     56.33      0.00
  185                 27.70    146.57     56.57      0.00
  187                  0.00    147.39     58.45      0.00
  189                116.55    147.61     62.23      0.00
  191                 88.45    147.83     53.22      0.00
  193                 77.01    147.90     56.29      0.00
  195                  0.00    147.96     57.40      0.00
  197                 18.40    147.87     54.11      0.00
  199                128.87    142.51     62.62      0.00
  201                 48.18    141.82     61.41      0.00
  203               4216.02    141.67     60.52      0.00
  204                  0.00    147.10     54.64      0.00
  205                 70.59    142.48     52.64      0.00
  206                  0.00    141.45     60.86      0.00
  207                 74.94    141.76     57.52      0.00
  208                  0.00    141.09     54.20      0.00
  209                  0.94    140.48     61.74      0.00
  211                  9.36    140.27     57.75      0.00
  213                 15.06    140.21     57.72      0.00
  215                 99.57    140.09     57.67      0.00
  217                 26.16    140.07     58.09      0.00
  219                 44.63    140.06     58.96      0.00
  225                 24.62    140.07     57.23      0.00
  229                 69.31    139.96     56.10      0.00
  231                 17.80    139.96     58.48      0.00
  237                 16.86    139.97     54.58      0.00
  239                 48.18    139.92     55.00      0.00
  241                  0.00    139.92     55.00      0.00
  243                  4.69    139.92     54.56      0.00
  247                 76.01    139.91     52.83      0.00
  249                  0.00    139.91     52.83      0.00
  251                 26.09    139.91     47.62      0.00
  253                 58.88    139.87     45.01      0.00
  255                 43.62    139.91     48.92      0.00
  257                  0.00    153.56     59.17      0.00
  259                  0.00    153.17     55.54      0.00
  261                  0.00    151.76     65.76      0.00
  263                  0.00    151.62     65.70      0.00
  265                  0.00    149.04     64.58      0.00
  267                  0.00    147.87     54.97      0.00
  269                  0.00    147.91     64.09      0.00
  271                  0.00    147.11     61.14      0.00
  273                  0.00    142.48     58.27      0.00
  275                  0.00    141.82     57.12      0.00
  River           -13133.21    220.00      0.00      0.00  Reservoir
  Lake                 0.00    167.00      0.00      0.00  Reservoir
  1                  770.10    145.09      5.72      0.00  Tank
  2                  -84.58    139.97     10.17      0.00  Tank
  3                 2533.80    158.08     12.60      0.00  Tank
   
   
  Link Results at 0:05:00 hrs:
  ----------------------------------------------
                       Flow  Velocity  Headloss
  Link                  gpm       fps   /1000ft
  ----------------------------------------------
  20               -2533.80      0.11      0.00
  40                -770.10      0.03      0.00
  50                  84.58      0.00      0.00
  60               13133.21      9.31      8.90
  101                  0.00      0.00      0.00
  103                186.11      0.30      0.03
  105               -391.25      1.11      0.45
  107                 63.26      0.18      0.02
  109                 42.25      0.07      0.00
  111               -207.66      0.59      0.14
  112                520.40      1.48      0.76
  113                 32.78      0.09      0.00
  114                134.11      0.86      0.44
  115                  4.25      0.03      0.00
  116                145.28      0.41      0.07
  117                600.71      1.70      0.99
  119               -706.52      2.00      1.33
  120               1082.25      3.07      2.93
  121                975.83      2.77      2.42
  122                352.12      2.25      2.64
  123               9540.56      4.33      1.64
  125              13133.20      5.96      2.96
  129               3195.56      2.27      0.74
  131               2933.54      2.08      0.64
  133              -2533.80      2.59      1.18
  135                380.66      0.27      0.01
  137                 46.17      0.07      0.00
  145                334.49      2.13      2.40
  147                328.13      2.09      2.32
  149               -739.47      4.72     10.44
  151               -732.77      4.68     10.27
  153                421.98      1.20      0.51
  155                451.82      1.28      0.58
  159               -461.05      1.31      0.60
  161               -490.29      3.13      4.88
  163               -165.07      0.47      0.09
  169                212.78      1.36      1.04
  171                481.25      1.37      0.65
  173               7786.85      3.53      1.12
  175               7730.91      3.51      1.11
  177               7686.29      3.49      1.10
  179               7439.61      3.38      1.03
  180                  2.81      0.01      0.00
  181                  2.81      0.01      0.00
  183               7250.04      3.29      0.99
  185                -15.72      0.10      0.01
  186                369.71      2.36      2.89
  187               6680.18      3.03      0.85
  189               4507.29      2.05      0.41
  191              -2130.40      1.51      0.35
  193              -1673.14      1.19      0.22
  195                617.54      1.75      1.04
  197                554.72      1.57      0.85
  199               -215.38      0.61      0.15
  201               -770.10      2.18      1.56
  202                528.49      3.37      5.61
  203                186.48      1.19      0.81
  204                528.49      1.50      0.78
  205                369.71      1.05      0.40
  207                401.86      1.14      0.47
  209                135.99      0.87      0.45
  211                554.13      1.57      0.85
  213                233.73      0.66      0.17
  215                260.55      0.74      0.21
  217               -213.92      0.61      0.15
  219               -229.62      0.65      0.17
  221                229.62      1.47      1.20
  223                108.26      0.31      0.04
  225                126.66      0.36      0.06
  229               4507.29      3.20      1.21
  231               4268.39      3.03      1.10
  233               4216.02      2.99      1.24
  235                110.03      0.31      0.04
  237                460.05      1.31      0.60
  238                497.19      1.41      0.69
  239                112.08      0.32      0.04
  240                497.19      1.41      0.69
  241                497.19      1.41      0.69
  243                496.25      0.79      0.17
  245                274.95      0.44      0.06
  247                194.97      0.31      0.03
  249                 95.41      0.15      0.01
  251                 44.63      0.09      0.00
  257                 24.62      0.07      0.00
  261                 64.92      0.41      0.12
  263                 17.80      0.05      0.00
  269                211.94      0.60      0.14
  271                 22.19      0.14      0.02
  273                172.89      0.49      0.10
  275                 49.63      0.14      0.01
  277                  4.69      0.01      0.00
  281                 44.94      0.18      0.02
  283                 75.08      0.21      0.02
  285                -48.05      0.14      0.01
  287                 16.98      0.07      0.00
  289                 84.58      0.35      0.06
  291                 58.88      0.24      0.03
  293                 -0.93      0.01      0.00
  295                 27.03      0.08      0.00
  297                458.53      2.93      4.31
  299                220.37      1.41      1.11
  301                220.37      1.41      1.11
  303                238.16      1.52      1.28
  305                142.18      0.40      0.07
  307                380.35      1.08      0.42
  309                176.59      1.13      0.74
  311                 83.96      0.24      0.03
  313                393.85      1.12      0.45
  315              -2290.68      1.62      0.40
  317                107.89      0.69      0.30
  319                  2.15      0.01      0.00
  321               7426.62      3.37      1.03
  323                  4.19      0.01      0.00
  325                160.28      1.02      0.62
  329              13133.20      5.96      3.00
  330                  0.00      0.00      0.00
  333                 -0.00      0.00      0.00
  10                   0.00      0.00      0.00  Pump
  335              13133.21      0.00    -93.66  Pump
   
   
  Node Results at 0:10:00 hrs:
  --------------------------------------------------------
                     Demand      Head  Pressure  Chemical
  Node                  gpm        ft       psi      mg/L
  --------------------------------------------------------
  10                   0.00    147.86      0.37      0.00
  15                 732.77    116.13     36.46      0.00
  20                   0.00    158.16     12.64      0.00
  35                1673.14    147.07     58.31      0.00
  40                   0.00    145.18      5.76      0.00
  50                   0.00    139.94     10.16      0.00
  60                   0.00    209.05     90.58      0.00
  601                  0.00    302.73    131.17      0.00
  61                   0.00    302.73    131.17      0.00
  101                205.15    147.86     45.87      0.00
  103                143.86    147.83     45.42      0.00
  105                146.20    149.00     52.21      0.00
  107                 59.01    148.97     55.02      0.00
  109                249.91    147.82     55.25      0.00
  111                153.30    148.09     59.84      0.00
  113                 21.61    148.09     63.30      0.00
  115                 56.27    148.97     58.48      0.00
  117                127.13    151.88     59.91      0.00
  119                190.22    158.55     67.83      0.00
  120                  0.00    156.41     67.77      0.00
  121                 44.96    161.83     70.99      0.00
  123                  0.00    166.27     67.28      0.00
  125                 49.25    161.14     65.05      0.00
  127                 19.07    159.08     44.67      0.00
  129                  0.00    159.07     46.83      0.00
  131                 46.17    159.06     66.32      0.00
  139                  6.36    152.46     52.63      0.00
  141                 10.64    147.70     62.27      0.00
  143                  6.70    133.08     59.61      0.00
  145                 29.84    149.50     64.35      0.00
  147                  9.23    150.78     57.32      0.00
  149                 29.24    151.31     58.63      0.00
  151                156.04    156.29     53.20      0.00
  153                 47.70    156.39     39.08      0.00
  157                 55.93    156.21     62.01      0.00
  159                 44.63    152.98     63.69      0.00
  161                 17.06    150.78     63.60      0.00
  163                 10.17    150.34     62.97      0.00
  164                  0.00    150.34     62.97      0.00
  166                  2.81    150.34     66.01      0.00
  167                 15.72    148.52     66.52      0.00
  169                  0.00    148.52     66.52      0.00
  171                 42.49    147.44     65.62      0.00
  173                  0.00    147.42     65.61      0.00
  177                 62.82    147.04     60.25      0.00
  179                  0.00    147.02     60.24      0.00
  181                  0.00    147.07     60.26      0.00
  183                  0.00    147.05     58.95      0.00
  184                  0.00    146.07     56.36      0.00
  185                 27.70    146.63     56.60      0.00
  187                  0.00    147.45     58.47      0.00
  189                116.55    147.68     62.26      0.00
  191                 88.45    147.89     53.25      0.00
  193                 77.01    147.97     56.32      0.00
  195                  0.00    148.03     57.42      0.00
  197                 18.40    147.94     54.14      0.00
  199                128.87    142.56     62.64      0.00
  201                 48.18    141.87     61.43      0.00
  203               4216.02    141.72     60.54      0.00
  204                  0.00    147.16     54.67      0.00
  205                 70.59    142.53     52.66      0.00
  206                  0.00    141.48     60.87      0.00
  207                 74.94    141.80     57.54      0.00
  208                  0.00    141.12     54.21      0.00
  209                  0.94    140.49     61.74      0.00
  211                  9.36    140.27     57.75      0.00
  213                 15.06    140.22     57.72      0.00
  215                 99.57    140.09     57.67      0.00
  217                 26.16    140.07     58.09      0.00
  219                 44.63    140.07     58.96      0.00
  225                 24.62    140.07     57.23      0.00
  229                 69.31    139.95     56.09      0.00
  231                 17.80    139.95     58.47      0.00
  237                 16.86    139.96     54.58      0.00
  239                 48.18    139.91     54.99      0.00
  241                  0.00    139.91     54.99      0.00
  243                  4.69    139.91     54.56      0.00
  247                 76.01    139.90     52.82      0.00
  249                  0.00    139.90     52.82      0.00
  251                 26.09    139.89     47.62      0.00
  253                 58.88    139.85     45.00      0.00
  255                 43.62    139.89     48.92      0.00
  257                  0.00    153.63     59.20      0.00
  259                  0.00    153.24     55.57      0.00
  261                  0.00    151.83     65.79      0.00
  263                  0.00    151.68     65.72      0.00
  265                  0.00    149.10     64.61      0.00
  267                  0.00    147.94     55.00      0.00
  269                  0.00    147.97     64.12      0.00
  271                  0.00    147.18     61.17      0.00
  273                  0.00    142.53     58.29      0.00
  275                  0.00    141.87     57.14      0.00
  River           -13130.89    220.00      0.00      0.00  Reservoir
  Lake                 0.00    167.00      0.00      0.00  Reservoir
  1                  764.65    145.18      5.76      0.00  Tank
  2                  -77.17    139.94     10.16      0.00  Tank
  3                 2529.51    158.16     12.64      0.00  Tank
   
   
  Link Results at 0:10:00 hrs:
  ----------------------------------------------
                       Flow  Velocity  Headloss
  Link                  gpm       fps   /1000ft
  ----------------------------------------------
  20               -2529.51      0.11      0.00
  40                -764.65      0.03      0.00
  50                  77.17      0.00      0.00
  60               13130.89      9.31      8.89
  101                  0.00      0.00      0.00
  103                186.16      0.30      0.03
  105               -391.31      1.11      0.45
  107                 63.31      0.18      0.02
  109                 42.30      0.07      0.00
  111               -207.61      0.59      0.14
  112                520.53      1.48      0.76
  113                 32.87      0.09      0.00
  114                134.15      0.86      0.44
  115                  4.30      0.03      0.00
  116                145.41      0.41      0.07
  117                600.81      1.70      0.99
  119               -706.65      2.00      1.33
  120               1082.41      3.07      2.93
  121                975.99      2.77      2.42
  122                352.18      2.25      2.64
  123               9542.36      4.33      1.64
  125              13130.89      5.96      2.96
  129               3191.39      2.26      0.74
  131               2929.32      2.08      0.63
  133              -2529.51      2.58      1.17
  135                380.73      0.27      0.01
  137                 46.17      0.07      0.00
  145                334.56      2.14      2.40
  147                328.20      2.09      2.32
  149               -739.47      4.72     10.44
  151               -732.77      4.68     10.27
  153                421.90      1.20      0.51
  155                451.74      1.28      0.58
  159               -460.98      1.31      0.60
  161               -490.21      3.13      4.88
  163               -165.12      0.47      0.09
  169                212.82      1.36      1.04
  171                481.13      1.36      0.65
  173               7788.59      3.54      1.13
  175               7732.66      3.51      1.11
  177               7688.03      3.49      1.10
  179               7441.34      3.38      1.03
  180                  2.81      0.01      0.00
  181                  2.81      0.01      0.00
  183               7251.80      3.29      0.99
  185                -15.72      0.10      0.01
  186                370.02      2.36      2.90
  187               6682.14      3.03      0.85
  189               4513.79      2.05      0.41
  191              -2125.86      1.51      0.35
  193              -1673.14      1.19      0.22
  195                612.99      1.74      1.02
  197                550.17      1.56      0.84
  199               -214.48      0.61      0.15
  201               -764.65      2.17      1.54
  202                529.42      3.38      5.62
  203                187.10      1.19      0.82
  204                529.42      1.50      0.78
  205                370.02      1.05      0.40
  207                401.58      1.14      0.47
  209                136.13      0.87      0.45
  211                553.94      1.57      0.85
  213                233.89      0.66      0.17
  215                260.59      0.74      0.21
  217               -213.99      0.61      0.15
  219               -229.63      0.65      0.17
  221                229.63      1.47      1.20
  223                108.35      0.31      0.04
  225                126.75      0.36      0.06
  229               4513.79      3.20      1.21
  231               4273.52      3.03      1.10
  233               4216.02      2.99      1.24
  235                111.40      0.32      0.04
  237                462.26      1.31      0.61
  238                504.61      1.43      0.71
  239                117.29      0.33      0.05
  240                504.61      1.43      0.71
  241                504.61      1.43      0.71
  243                503.67      0.80      0.18
  245                276.67      0.44      0.06
  247                194.97      0.31      0.03
  249                 95.41      0.15      0.01
  251                 44.63      0.09      0.00
  257                 24.62      0.07      0.00
  261                 66.64      0.43      0.12
  263                 17.80      0.05      0.00
  269                217.64      0.62      0.15
  271                 20.47      0.13      0.01
  273                180.31      0.51      0.11
  275                 52.40      0.15      0.01
  277                  4.69      0.01      0.00
  281                 47.72      0.19      0.02
  283                 79.73      0.23      0.02
  285                -49.11      0.14      0.01
  287                 20.82      0.09      0.00
  289                 77.17      0.32      0.05
  291                 58.88      0.24      0.03
  293                 -4.52      0.03      0.00
  295                 30.61      0.09      0.00
  297                458.60      2.93      4.31
  299                220.40      1.41      1.11
  301                220.40      1.41      1.11
  303                238.20      1.52      1.28
  305                142.21      0.40      0.07
  307                380.41      1.08      0.42
  309                176.56      1.13      0.74
  311                 84.04      0.24      0.03
  313                393.67      1.12      0.45
  315              -2286.13      1.62      0.40
  317                107.97      0.69      0.30
  319                  3.43      0.01      0.00
  321               7428.36      3.37      1.03
  323                  9.32      0.03      0.00
  325                160.27      1.02      0.62
  329              13130.89      5.96      3.00
  330                  0.00      0.00      0.00
  333                 -0.00      0.00      0.00
  10                   0.00      0.00      0.00  Pump
  335              13130.89      0.00    -93.68  Pump
   
   
  Node Results at 0:15:00 hrs:
  --------------------------------------------------------
                     Demand      Head  Pressure  Chemical
  Node                  gpm        ft       psi      mg/L
  --------------------------------------------------------
  10                   0.00    147.93      0.40      0.00
  15                 732.77    116.21     36.49      0.00
  20                   0.00    158.24     12.67      0.00
  35                1673.14    147.13     58.34      0.00
  40                   0.00    145.27      5.79      0.00
  50                   0.00    139.91     10.15      0.00
  60                   0.00    209.06     90.58      0.00
  601                  0.00    302.76    131.18      0.00
  61                   0.00    302.76    131.18      0.00
  101                205.15    147.93     45.90      0.00
  103                143.86    147.89     45.45      0.00
  105                146.20    149.06     52.24      0.00
  107                 59.01    149.04     55.05      0.00
  109                249.91    147.88     55.28      0.00
  111                153.30    148.16     59.86      0.00
  113                 21.61    148.15     63.33      0.00
  115                 56.27    149.04     58.51      0.00
  117                127.13    151.94     59.94      0.00
  119                190.22    158.62     67.86      0.00
  120                  0.00    156.48     67.80      0.00
  121                 44.96    161.90     71.02      0.00
  123                  0.00    166.34     67.31      0.00
  125                 49.25    161.21     65.09      0.00
  127                 19.07    159.16     44.70      0.00
  129                  0.00    159.15     46.86      0.00
  131                 46.17    159.13     66.35      0.00
  139                  6.36    152.53     52.66      0.00
  141                 10.64    147.77     62.30      0.00
  143                  6.70    133.15     59.64      0.00
  145                 29.84    149.57     64.38      0.00
  147                  9.23    150.85     57.35      0.00
  149                 29.24    151.38     58.66      0.00
  151                156.04    156.36     53.23      0.00
  153                 47.70    156.46     39.11      0.00
  157                 55.93    156.28     62.04      0.00
  159                 44.63    153.05     63.71      0.00
  161                 17.06    150.85     63.63      0.00
  163                 10.17    150.40     63.00      0.00
  164                  0.00    150.40     63.00      0.00
  166                  2.81    150.40     66.04      0.00
  167                 15.72    148.58     66.55      0.00
  169                  0.00    148.58     66.55      0.00
  171                 42.49    147.51     65.65      0.00
  173                  0.00    147.49     65.64      0.00
  177                 62.82    147.11     60.28      0.00
  179                  0.00    147.08     60.26      0.00
  181                  0.00    147.14     60.29      0.00
  183                  0.00    147.11     58.98      0.00
  184                  0.00    146.13     56.39      0.00
  185                 27.70    146.69     56.63      0.00
  187                  0.00    147.52     58.50      0.00
  189                116.55    147.74     62.28      0.00
  191                 88.45    147.96     53.28      0.00
  193                 77.01    148.03     56.34      0.00
  195                  0.00    148.09     57.45      0.00
  197                 18.40    148.01     54.16      0.00
  199                128.87    142.62     62.66      0.00
  201                 48.18    141.92     61.45      0.00
  203               4216.02    141.77     60.56      0.00
  204                  0.00    147.23     54.69      0.00
  205                 70.59    142.58     52.68      0.00
  206                  0.00    141.52     60.89      0.00
  207                 74.94    141.85     57.56      0.00
  208                  0.00    141.14     54.23      0.00
  209                  0.94    140.50     61.74      0.00
  211                  9.36    140.28     57.75      0.00
  213                 15.06    140.22     57.72      0.00
  215                 99.57    140.09     57.67      0.00
  217                 26.16    140.08     58.10      0.00
  219                 44.63    140.07     58.96      0.00
  225                 24.62    140.07     57.23      0.00
  229                 69.31    139.94     56.09      0.00
  231                 17.80    139.94     58.47      0.00
  237                 16.86    139.95     54.57      0.00
  239                 48.18    139.89     54.98      0.00
  241                  0.00    139.89     54.98      0.00
  243                  4.69    139.89     54.55      0.00
  247                 76.01    139.88     52.81      0.00
  249                  0.00    139.88     52.81      0.00
  251                 26.09    139.87     47.61      0.00
  253                 58.88    139.84     44.99      0.00
  255                 43.62    139.87     48.91      0.00
  257                  0.00    153.69     59.23      0.00
  259                  0.00    153.31     55.59      0.00
  261                  0.00    151.90     65.82      0.00
  263                  0.00    151.75     65.75      0.00
  265                  0.00    149.17     64.63      0.00
  267                  0.00    148.00     55.03      0.00
  269                  0.00    148.04     64.14      0.00
  271                  0.00    147.24     61.20      0.00
  273                  0.00    142.58     58.32      0.00
  275                  0.00    141.92     57.16      0.00
  River           -13128.56    220.00      0.00      0.00  Reservoir
  Lake                 0.00    167.00      0.00      0.00  Reservoir
  1                  759.37    145.27      5.79      0.00  Tank
  2                  -70.01    139.91     10.15      0.00  Tank
  3                 2525.31    158.24     12.67      0.00  Tank
   
   
  Link Results at 0:15:00 hrs:
  ----------------------------------------------
                       Flow  Velocity  Headloss
  Link                  gpm       fps   /1000ft
  ----------------------------------------------
  20               -2525.31      0.11      0.00
  40                -759.37      0.03      0.00
  50                  70.01      0.00      0.00
  60               13128.56      9.31      8.89
  101                  0.00      0.00      0.00
  103                186.21      0.30      0.03
  105               -391.36      1.11      0.45
  107                 63.35      0.18      0.02
  109                 42.36      0.07      0.00
  111               -207.55      0.59      0.14
  112                520.65      1.48      0.76
  113                 32.96      0.09      0.00
  114                134.19      0.86      0.44
  115                  4.34      0.03      0.00
  116                145.54      0.41      0.07
  117                600.91      1.70      0.99
  119               -706.77      2.00      1.33
  120               1082.56      3.07      2.94
  121                976.13      2.77      2.42
  122                352.24      2.25      2.64
  123               9544.06      4.33      1.64
  125              13128.56      5.96      2.96
  129               3187.30      2.26      0.74
  131               2925.19      2.07      0.63
  133              -2525.31      2.58      1.17
  135                380.81      0.27      0.01
  137                 46.17      0.07      0.00
  145                334.64      2.14      2.41
  147                328.27      2.10      2.32
  149               -739.47      4.72     10.44
  151               -732.77      4.68     10.27
  153                421.83      1.20      0.51
  155                451.67      1.28      0.58
  159               -460.90      1.31      0.60
  161               -490.14      3.13      4.88
  163               -165.16      0.47      0.09
  169                212.86      1.36      1.04
  171                481.02      1.36      0.65
  173               7790.26      3.54      1.13
  175               7734.33      3.51      1.11
  177               7689.70      3.49      1.10
  179               7443.00      3.38      1.03
  180                  2.81      0.01      0.00
  181                  2.81      0.01      0.00
  183               7253.49      3.29      0.99
  185                -15.72      0.10      0.01
  186                370.31      2.36      2.90
  187               6684.01      3.03      0.85
  189               4520.06      2.05      0.41
  191              -2121.47      1.50      0.35
  193              -1673.14      1.19      0.22
  195                608.58      1.73      1.01
  197                545.76      1.55      0.83
  199               -213.61      0.61      0.15
  201               -759.37      2.15      1.52
  202                530.31      3.38      5.64
  203                187.69      1.20      0.82
  204                530.31      1.50      0.78
  205                370.31      1.05      0.40
  207                401.30      1.14      0.47
  209                136.28      0.87      0.46
  211                553.76      1.57      0.85
  213                234.04      0.66      0.17
  215                260.63      0.74      0.21
  217               -214.05      0.61      0.15
  219               -229.64      0.65      0.17
  221                229.64      1.47      1.20
  223                108.44      0.31      0.04
  225                126.84      0.36      0.06
  229               4520.06      3.21      1.22
  231               4278.43      3.03      1.10
  233               4216.02      2.99      1.24
  235                112.76      0.32      0.04
  237                464.43      1.32      0.61
  238                511.77      1.45      0.73
  239                122.28      0.35      0.05
  240                511.77      1.45      0.73
  241                511.77      1.45      0.73
  243                510.83      0.82      0.18
  245                278.35      0.44      0.06
  247                194.97      0.31      0.03
  249                 95.41      0.15      0.01
  251                 44.63      0.09      0.00
  257                 24.62      0.07      0.00
  261                 68.32      0.44      0.13
  263                 17.80      0.05      0.00
  269                223.12      0.63      0.16
  271                 18.79      0.12      0.01
  273                187.47      0.53      0.11
  275                 55.08      0.16      0.01
  277                  4.69      0.01      0.00
  281                 50.39      0.21      0.02
  283                 84.21      0.24      0.03
  285                -50.52      0.14      0.01
  287                 24.90      0.10      0.01
  289                 70.01      0.29      0.04
  291                 58.88      0.24      0.03
  293                 -7.59      0.05      0.00
  295                 33.69      0.10      0.00
  297                458.67      2.93      4.31
  299                220.44      1.41      1.11
  301                220.44      1.41      1.11
  303                238.24      1.52      1.28
  305                142.24      0.40      0.07
  307                380.47      1.08      0.42
  309                176.52      1.13      0.74
  311                 84.11      0.24      0.03
  313                393.50      1.12      0.45
  315              -2281.72      1.62      0.40
  317                108.05      0.69      0.30
  319                  4.72      0.01      0.00
  321               7430.02      3.37      1.03
  323                 14.23      0.04      0.00
  325                160.25      1.02      0.62
  329              13128.56      5.96      3.00
  330                  0.00      0.00      0.00
  333                 -0.00      0.00      0.00
  10                   0.00      0.00      0.00  Pump
  335              13128.56      0.00    -93.70  Pump
   
   
  Node Results at 0:20:00 hrs:
  --------------------------------------------------------
                     Demand      Head  Pressure  Chemical
  Node                  gpm        ft       psi      mg/L
  --------------------------------------------------------
  10                   0.00    148.00      0.43      0.00
  15                 732.77    116.28     36.52      0.00
  20                   0.00    158.32     12.70      0.00
  35                1673.14    147.20     58.36      0.00
  40                   0.00    145.36      5.83      0.00
  50                   0.00    139.89     10.13      0.00
  60                   0.00    209.06     90.59      0.00
  601                  0.00    302.78    131.20      0.00
  61                   0.00    302.78    131.20      0.00
  101                205.15    148.00     45.93      0.00
  103                143.86    147.96     45.48      0.00
  105                146.20    149.13     52.27      0.00
  107                 59.01    149.11     55.07      0.00
  109                249.91    147.95     55.31      0.00
  111                153.30    148.23     59.89      0.00
  113                 21.61    148.22     63.36      0.00
  115                 56.27    149.10     58.54      0.00
  117                127.13    152.01     59.97      0.00
  119                190.22    158.69     67.89      0.00
  120                  0.00    156.54     67.83      0.00
  121                 44.96    161.97     71.05      0.00
  123                  0.00    166.40     67.34      0.00
  125                 49.25    161.28     65.12      0.00
  127                 19.07    159.24     44.73      0.00
  129                  0.00    159.22     46.89      0.00
  131                 46.17    159.21     66.39      0.00
  139                  6.36    152.61     52.69      0.00
  141                 10.64    147.85     62.33      0.00
  143                  6.70    133.22     59.68      0.00
  145                 29.84    149.64     64.41      0.00
  147                  9.23    150.92     57.38      0.00
  149                 29.24    151.45     58.69      0.00
  151                156.04    156.43     53.26      0.00
  153                 47.70    156.53     39.14      0.00
  157                 55.93    156.35     62.07      0.00
  159                 44.63    153.11     63.74      0.00
  161                 17.06    150.91     63.66      0.00
  163                 10.17    150.47     63.03      0.00
  164                  0.00    150.47     63.03      0.00
  166                  2.81    150.47     66.06      0.00
  167                 15.72    148.65     66.58      0.00
  169                  0.00    148.65     66.58      0.00
  171                 42.49    147.57     65.68      0.00
  173                  0.00    147.55     65.67      0.00
  177                 62.82    147.18     60.30      0.00
  179                  0.00    147.15     60.29      0.00
  181                  0.00    147.20     60.32      0.00
  183                  0.00    147.18     59.01      0.00
  184                  0.00    146.19     56.41      0.00
  185                 27.70    146.76     56.66      0.00
  187                  0.00    147.58     58.53      0.00
  189                116.55    147.81     62.31      0.00
  191                 88.45    148.02     53.31      0.00
  193                 77.01    148.10     56.37      0.00
  195                  0.00    148.16     57.48      0.00
  197                 18.40    148.07     54.19      0.00
  199                128.87    142.67     62.68      0.00
  201                 48.18    141.97     61.47      0.00
  203               4216.02    141.82     60.59      0.00
  204                  0.00    147.29     54.72      0.00
  205                 70.59    142.64     52.70      0.00
  206                  0.00    141.56     60.90      0.00
  207                 74.94    141.89     57.58      0.00
  208                  0.00    141.17     54.24      0.00
  209                  0.94    140.51     61.75      0.00
  211                  9.36    140.28     57.75      0.00
  213                 15.06    140.23     57.73      0.00
  215                 99.57    140.10     57.67      0.00
  217                 26.16    140.08     58.10      0.00
  219                 44.63    140.08     58.96      0.00
  225                 24.62    140.08     57.23      0.00
  229                 69.31    139.93     56.08      0.00
  231                 17.80    139.93     58.47      0.00
  237                 16.86    139.94     54.57      0.00
  239                 48.18    139.88     54.98      0.00
  241                  0.00    139.88     54.98      0.00
  243                  4.69    139.88     54.54      0.00
  247                 76.01    139.87     52.81      0.00
  249                  0.00    139.87     52.81      0.00
  251                 26.09    139.86     47.60      0.00
  253                 58.88    139.82     44.99      0.00
  255                 43.62    139.86     48.90      0.00
  257                  0.00    153.76     59.26      0.00
  259                  0.00    153.37     55.62      0.00
  261                  0.00    151.97     65.85      0.00
  263                  0.00    151.82     65.78      0.00
  265                  0.00    149.23     64.66      0.00
  267                  0.00    148.07     55.06      0.00
  269                  0.00    148.10     64.17      0.00
  271                  0.00    147.31     61.23      0.00
  273                  0.00    142.64     58.34      0.00
  275                  0.00    141.97     57.18      0.00
  River           -13126.24    220.00      0.00      0.00  Reservoir
  Lake                 0.00    167.00      0.00      0.00  Reservoir
  1                  754.25    145.36      5.83      0.00  Tank
  2                  -63.09    139.89     10.13      0.00  Tank
  3                 2521.18    158.32     12.70      0.00  Tank
   
   
  Link Results at 0:20:00 hrs:
  ----------------------------------------------
                       Flow  Velocity  Headloss
  Link                  gpm       fps   /1000ft
  ----------------------------------------------
  20               -2521.18      0.11      0.00
  40                -754.25      0.03      0.00
  50                  63.09      0.00      0.00
  60               13126.24      9.31      8.89
  101                  0.00      0.00      0.00
  103                186.26      0.30      0.03
  105               -391.41      1.11      0.45
  107                 63.39      0.18      0.02
  109                 42.41      0.07      0.00
  111               -207.50      0.59      0.14
  112                520.77      1.48      0.76
  113                 33.05      0.09      0.00
  114                134.22      0.86      0.44
  115                  4.38      0.03      0.00
  116                145.66      0.41      0.07
  117                601.00      1.70      0.99
  119               -706.88      2.01      1.33
  120               1082.71      3.07      2.94
  121                976.27      2.77      2.42
  122                352.29      2.25      2.65
  123               9545.70      4.33      1.64
  125              13126.24      5.96      2.96
  129               3183.28      2.26      0.74
  131               2921.13      2.07      0.63
  133              -2521.18      2.57      1.17
  135                380.88      0.27      0.01
  137                 46.17      0.07      0.00
  145                334.71      2.14      2.41
  147                328.35      2.10      2.32
  149               -739.47      4.72     10.44
  151               -732.77      4.68     10.27
  153                421.76      1.20      0.51
  155                451.60      1.28      0.58
  159               -460.83      1.31      0.60
  161               -490.07      3.13      4.88
  163               -165.20      0.47      0.09
  169                212.90      1.36      1.04
  171                480.91      1.36      0.65
  173               7791.86      3.54      1.13
  175               7735.92      3.51      1.11
  177               7691.30      3.49      1.10
  179               7444.58      3.38      1.03
  180                  2.81      0.01      0.00
  181                  2.81      0.01      0.00
  183               7255.11      3.29      0.99
  185                -15.72      0.10      0.01
  186                370.60      2.37      2.91
  187               6685.81      3.03      0.85
  189               4526.11      2.05      0.41
  191              -2117.21      1.50      0.35
  193              -1673.14      1.19      0.22
  195                604.31      1.71      1.00
  197                541.49      1.54      0.81
  199               -212.76      0.60      0.14
  201               -754.25      2.14      1.50
  202                531.17      3.39      5.66
  203                188.27      1.20      0.83
  204                531.17      1.51      0.79
  205                370.60      1.05      0.40
  207                401.03      1.14      0.47
  209                136.42      0.87      0.46
  211                553.58      1.57      0.85
  213                234.18      0.66      0.17
  215                260.67      0.74      0.21
  217               -214.11      0.61      0.15
  219               -229.65      0.65      0.17
  221                229.65      1.47      1.20
  223                108.52      0.31      0.04
  225                126.93      0.36      0.06
  229               4526.11      3.21      1.22
  231               4283.13      3.04      1.10
  233               4216.02      2.99      1.24
  235                114.12      0.32      0.05
  237                466.57      1.32      0.62
  238                518.69      1.47      0.75
  239                127.05      0.36      0.06
  240                518.69      1.47      0.75
  241                518.69      1.47      0.75
  243                517.75      0.83      0.18
  245                279.98      0.45      0.06
  247                194.97      0.31      0.03
  249                 95.41      0.15      0.01
  251                 44.63      0.09      0.00
  257                 24.62      0.07      0.00
  261                 69.95      0.45      0.13
  263                 17.80      0.05      0.00
  269                228.41      0.65      0.16
  271                 17.16      0.11      0.01
  273                194.38      0.55      0.12
  275                 57.67      0.16      0.01
  277                  4.69      0.01      0.00
  281                 52.98      0.22      0.03
  283                 88.54      0.25      0.03
  285                -52.03      0.15      0.01
  287                 29.01      0.12      0.01
  289                 63.09      0.26      0.04
  291                 58.88      0.24      0.03
  293                -10.41      0.07      0.00
  295                 36.50      0.10      0.01
  297                458.74      2.93      4.31
  299                220.47      1.41      1.11
  301                220.47      1.41      1.11
  303                238.27      1.52      1.28
  305                142.26      0.40      0.07
  307                380.53      1.08      0.42
  309                176.49      1.13      0.74
  311                 84.18      0.24      0.03
  313                393.34      1.12      0.45
  315              -2277.45      1.62      0.40
  317                108.13      0.69      0.30
  319                  5.99      0.02      0.00
  321               7431.60      3.37      1.03
  323                 18.93      0.05      0.00
  325                160.24      1.02      0.62
  329              13126.24      5.96      3.00
  330                  0.00      0.00      0.00
  333                 -0.00      0.00      0.00
  10                   0.00      0.00      0.00  Pump
  335              13126.24      0.00    -93.72  Pump
   
   
  Node Results at 0:25:00 hrs:
  --------------------------------------------------------
                     Demand      Head  Pressure  Chemical
  Node                  gpm        ft       psi      mg/L
  --------------------------------------------------------
  10                   0.00    148.06      0.46      0.00
  15                 732.77    116.35     36.55      0.00
  20                   0.00    158.40     12.74      0.00
  35                1673.14    147.26     58.39      0.00
  40                   0.00    145.45      5.87      0.00
  50                   0.00    139.87     10.13      0.00
  60                   0.00    209.06     90.59      0.00
  601                  0.00    302.81    131.21      0.00
  61                   0.00    302.81    131.21      0.00
  101                205.15    148.06     45.96      0.00
  103                143.86    148.02     45.51      0.00
  105                146.20    149.20     52.30      0.00
  107                 59.01    149.17     55.10      0.00
  109                249.91    148.02     55.34      0.00
  111                153.30    148.29     59.92      0.00
  113                 21.61    148.28     63.39      0.00
  115                 56.27    149.17     58.57      0.00
  117                127.13    152.08     60.00      0.00
  119                190.22    158.76     67.92      0.00
  120                  0.00    156.61     67.86      0.00
  121                 44.96    162.04     71.08      0.00
  123                  0.00    166.47     67.37      0.00
  125                 49.25    161.35     65.15      0.00
  127                 19.07    159.31     44.77      0.00
  129                  0.00    159.30     46.93      0.00
  131                 46.17    159.29     66.42      0.00
  139                  6.36    152.68     52.72      0.00
  141                 10.64    147.92     62.36      0.00
  143                  6.70    133.30     59.71      0.00
  145                 29.84    149.72     64.44      0.00
  147                  9.23    151.00     57.41      0.00
  149                 29.24    151.53     58.72      0.00
  151                156.04    156.50     53.29      0.00
  153                 47.70    156.60     39.17      0.00
  157                 55.93    156.41     62.10      0.00
  159                 44.63    153.18     63.77      0.00
  161                 17.06    150.98     63.69      0.00
  163                 10.17    150.54     63.06      0.00
  164                  0.00    150.54     63.06      0.00
  166                  2.81    150.54     66.09      0.00
  167                 15.72    148.71     66.60      0.00
  169                  0.00    148.71     66.60      0.00
  171                 42.49    147.64     65.70      0.00
  173                  0.00    147.62     65.70      0.00
  177                 62.82    147.24     60.33      0.00
  179                  0.00    147.22     60.32      0.00
  181                  0.00    147.27     60.35      0.00
  183                  0.00    147.25     59.04      0.00
  184                  0.00    146.26     56.44      0.00
  185                 27.70    146.82     56.69      0.00
  187                  0.00    147.65     58.56      0.00
  189                116.55    147.88     62.34      0.00
  191                 88.45    148.09     53.33      0.00
  193                 77.01    148.17     56.40      0.00
  195                  0.00    148.23     57.51      0.00
  197                 18.40    148.14     54.22      0.00
  199                128.87    142.72     62.71      0.00
  201                 48.18    142.03     61.50      0.00
  203               4216.02    141.88     60.61      0.00
  204                  0.00    147.36     54.75      0.00
  205                 70.59    142.69     52.73      0.00
[...]
  219                 68.59    139.80     58.84      0.00
  225                 37.85    139.81     57.11      0.00
  229                106.54    139.93     56.08     85.30
  231                 27.36    139.92     58.46      0.00
  237                 25.91    140.05     54.62     84.97
  239                 74.05    140.04     55.05     85.42
  241                  0.00    140.04     55.05     80.24
  243                  7.20    140.04     54.61      0.00
  247                116.83    140.04     52.88      9.98
  249                  0.00    140.04     52.88     81.07
  251                 40.11    140.04     47.68      0.00
  253                 90.50    140.09     45.10      0.00
  255                 67.05    140.17     49.04      0.00
  257                  0.00    153.06     58.96      0.00
  259                  0.00    152.61     55.29      0.00
  261                  0.00    150.97     65.42      0.00
  263                  0.00    150.79     65.34      0.00
  265                  0.00    149.88     64.94      0.00
  267                  0.00    148.14     55.09      0.00
  269                  0.00    148.65     64.41      0.00
  271                  0.00    148.25     61.64      0.00
  273                  0.00    142.96     58.48      0.00
  275                  0.00    142.30     57.33      0.00
  River           -13157.81    220.00      0.00      0.00  Reservoir
  Lake                 0.00    167.00      0.00      0.00  Reservoir
  1                 -543.35    149.18      7.49      0.00  Tank
  2                 -327.92    140.89     10.57      0.00  Tank
  3                  791.59    161.49     14.08      0.00  Tank
   
   
  Link Results at 23:55:00 hrs:
  ----------------------------------------------
                       Flow  Velocity  Headloss
  Link                  gpm       fps   /1000ft
  ----------------------------------------------
  20                -791.59      0.03      0.00
  40                 543.35      0.02      0.00
  50                 327.92      0.01      0.00
  60               13157.81      9.33      8.93
  101                  0.00      0.00      0.00
  103                126.68      0.20      0.01
  105               -442.00      1.25      0.56
  107                 -9.56      0.03      0.00
  109                -94.43      0.15      0.01
  111               -478.56      1.36      0.65
  112                429.91      1.22      0.53
  113               -191.00      0.54      0.12
  114                 89.38      0.57      0.21
  115               -100.26      0.64      0.26
  116               -134.83      0.38      0.06
  117                657.15      1.86      1.16
  119               -706.05      2.00      1.33
  120               1193.41      3.39      3.52
  121               1060.21      3.01      2.82
  122                365.18      2.33      2.83
  123               9466.43      4.30      1.61
  125              11307.87      5.13      2.24
  129               1407.15      1.00      0.16
  131               1129.72      0.80      0.11
  133               -791.59      0.81      0.14
  135                308.81      0.22      0.01
  137                 70.97      0.11      0.00
  145                237.84      1.52      1.28
  147                228.06      1.46      1.18
  149               -349.71      2.23      2.61
  151               -339.42      2.17      2.47
  153                138.00      0.39      0.06
  155                183.86      0.52      0.11
  159               -198.06      0.56      0.13
  161               -242.99      1.55      1.33
  163               -128.41      0.36      0.06
  169                201.73      1.29      0.94
  171                354.42      1.01      0.37
  173               7626.23      3.46      1.08
  175               7540.26      3.42      1.06
  177               7471.66      3.39      1.04
  179               7181.35      3.26      0.97
  180                  4.32      0.01      0.00
  181                  4.32      0.01      0.00
  183               6941.48      3.15      0.91
  185                -24.17      0.15      0.02
  186                276.12      1.76      1.68
  187               6288.18      2.85      0.76
  189               4746.18      2.15      0.45
  191              -1476.70      1.05      0.18
  193              -1768.12      1.25      0.25
  195               -180.30      0.51      0.11
  197               -276.86      0.79      0.23
  199                266.49      0.76      0.22
  201                543.35      1.54      0.82
  202                536.06      3.42      5.76
  203                302.52      1.93      2.00
  204                536.06      1.52      0.80
  205                276.12      0.78      0.23
  207                 36.03      0.10      0.01
  209                218.65      1.40      1.09
  211                629.13      1.78      1.07
  213                 57.47      0.16      0.01
  215                -84.18      0.24      0.03
  217               -314.98      0.89      0.30
  219               -264.08      0.75      0.22
  221                264.08      1.69      1.55
  223               -121.55      0.34      0.05
  225                -93.27      0.26      0.03
  229               4746.18      3.37      1.33
  231               4376.16      3.10      1.15
  233               4220.15      2.99      1.25
  235                171.95      0.49      0.10
  237                491.60      1.39      0.68
  238                566.28      1.61      0.88
  239                189.87      0.54      0.12
  240                566.28      1.61      0.88
  241                566.28      1.61      0.88
  243                564.84      0.90      0.22
  245                381.60      0.61      0.10
  247                299.68      0.48      0.07
  249                146.64      0.23      0.02
  251                 68.59      0.14      0.01
  257                 37.85      0.11      0.01
  261                 58.78      0.38      0.10
  263                 27.36      0.08      0.00
  269                168.85      0.48      0.09
  271                 75.11      0.48      0.15
  273                 67.82      0.19      0.02
  275                  2.26      0.01      0.00
  277                  7.20      0.02      0.00
  281                 -4.95      0.02      0.00
  283                 -8.49      0.02      0.00
  285                -16.64      0.05      0.00
  287               -105.14      0.43      0.10
  289                327.92      1.34      0.78
  291                 90.50      0.37      0.07
  293                 65.24      0.42      0.12
  295                -25.13      0.07      0.00
  297                498.39      3.18      5.03
  299                239.62      1.53      1.30
  301                239.62      1.53      1.30
  303                258.77      1.65      1.49
  305                158.76      0.45      0.08
  307                417.53      1.18      0.50
  309                219.92      1.40      1.11
  311               -304.10      0.86      0.28
  313                518.01      1.47      0.75
  315              -1587.82      1.13      0.20
  317                107.91      0.69      0.30
  319                 64.04      0.18      0.02
  321               7161.40      3.25      0.96
  323                 81.95      0.23      0.02
  325                111.12      0.71      0.31
  329              13157.81      5.97      3.01
  330                  0.00      0.00      0.00
  333                 -0.00      0.00      0.00
  10                   0.00      0.00      0.00  Pump
  335              13157.81      0.00    -93.44  Pump
   
   
  Node Results at 24:00:00 hrs:
  --------------------------------------------------------
                     Demand      Head  Pressure  Chemical
  Node                  gpm        ft       psi      mg/L
  --------------------------------------------------------
  10                   0.00    151.04      1.75      0.00
  15                 732.77    119.35     37.85      0.00
  20                   0.00    161.52     14.09      0.00
  35                1673.14    150.29     59.70     14.48
  40                   0.00    149.12      7.46     28.52
  50                   0.00    140.78     10.52      0.00
  60                   0.00    209.21     90.65      0.00
  601                  0.00    303.81    131.64      0.00
  61                   0.00    303.81    131.64      0.00
  101                205.15    151.04     47.25      0.00
  103                143.86    151.01     46.80      0.00
  105                146.20    152.17     53.59      0.00
  107                 59.01    152.15     56.39      0.00
  109                249.91    151.00     56.63      0.00
  111                153.30    151.28     61.22      0.00
  113                 21.61    151.27     64.68      0.00
  115                 56.27    152.15     59.86      0.00
  117                127.13    155.05     61.29      0.00
  119                190.22    161.70     69.20      0.00
  120                  0.00    159.57     69.14      0.00
  121                 44.96    164.97     72.35      0.00
  123                  0.00    169.35     68.61      0.00
  125                 49.25    164.32     66.43      0.00
  127                 19.07    162.38     46.09      0.00
  129                  0.00    162.37     48.25      0.00
  131                 46.17    162.35     67.75      0.00
  139                  6.36    155.70     54.03      0.00
  141                 10.64    150.91     63.66      0.00
  143                  6.70    136.29     61.00      0.00
  145                 29.84    152.70     65.73      0.00
  147                  9.23    153.97     58.70      0.00
  149                 29.24    154.50     60.01      0.00
  151                156.04    159.45     54.58      0.00
  153                 47.70    159.56     40.45      0.00
  157                 55.93    159.37     63.38      0.00
  159                 44.63    156.14     65.06      0.00
  161                 17.06    153.95     64.97      0.00
  163                 10.17    153.51     64.35      0.00
  164                  0.00    153.51     64.35    230.00
  166                  2.81    153.51     67.38      0.00
  167                 15.72    151.69     67.90      0.00
  169                  0.00    151.70     67.90      0.00
  171                 42.49    150.62     67.00      0.00
  173                  0.00    150.60     66.99      0.00
  177                 62.82    150.27     61.65    195.49
  179                  0.00    150.26     61.64    176.43
  181                  0.00    150.29     61.66     18.12
  183                  0.00    150.28     60.35    172.20
  184                  0.00    149.19     57.71     64.20
  185                 27.70    149.80     57.97     82.58
  187                  0.00    150.64     59.85      0.00
  189                116.55    150.88     63.64      0.00
  191                 88.45    151.08     54.63      0.00
  193                 77.01    151.15     57.70      0.00
  195                  0.00    151.21     58.80      0.00
  197                 18.40    151.12     55.52      0.00
  199                128.87    145.46     63.89      0.00
  201                 48.18    144.73     62.67      0.00
  203               4216.02    144.58     61.78      0.00
  204                  0.00    150.34     56.04      0.00
  205                 70.59    145.40     53.90      7.46
  206                  0.00    143.96     61.94     24.18
  207                 74.94    144.50     58.71     25.51
  208                  0.00    143.35     55.18     15.64
  209                  0.94    142.30     62.52     19.31
  211                  9.36    141.94     58.47     48.04
  213                 15.06    141.87     58.44     37.62
  215                 99.57    141.74     58.38     96.89
  217                 26.16    141.73     58.81      0.00
  219                 44.63    141.72     59.67      0.00
  225                 24.62    141.72     57.94      0.00
  229                 69.31    141.24     56.65     86.49
  231                 17.80    141.24     59.03      0.00
  237                 16.86    141.23     55.13     84.97
  239                 48.18    141.05     55.49     86.91
  241                  0.00    141.05     55.49     79.33
  243                  4.69    141.05     55.05      0.00
  247                 76.01    141.01     53.30     11.08
  249                  0.00    141.01     53.30     82.73
  251                 26.09    140.97     48.08      0.00
  253                 58.88    140.80     45.41      0.00
  255                 43.62    140.84     49.33      0.00
  257                  0.00    156.79     60.57      0.00
  259                  0.00    156.40     56.94      0.00
  261                  0.00    155.00     67.16      0.00
  263                  0.00    154.85     67.10      0.00
  265                  0.00    152.28     65.98      0.00
  267                  0.00    151.13     56.38      0.00
  269                  0.00    151.16     65.50      0.00
  271                  0.00    150.39     62.56      0.00
  273                  0.00    145.40     59.54      0.00
  275                  0.00    144.72     58.37      0.00
  River           -13026.63    220.00      0.00      0.00  Reservoir
  Lake                 0.00    167.00      0.00      0.00  Reservoir
  1                  591.62    149.12      7.46      0.00  Tank
  2                   83.68    140.78     10.52      0.00  Tank
  3                 2437.43    161.52     14.09      0.00  Tank
   
   
  Link Results at 24:00:00 hrs:
  ----------------------------------------------
                       Flow  Velocity  Headloss
  Link                  gpm       fps   /1000ft
  ----------------------------------------------
  20               -2437.43      0.10      0.00
  40                -591.62      0.02      0.00
  50                 -83.68      0.00      0.00
  60               13026.63      9.24      8.76
  101                  0.00      0.00      0.00
  103                185.64      0.30      0.03
  105               -390.78      1.11      0.44
  107                 62.88      0.18      0.02
  109                 41.78      0.07      0.00
  111               -208.13      0.59      0.14
  112                519.28      1.47      0.75
  113                 31.74      0.09      0.00
  114                133.79      0.85      0.44
  115                  3.87      0.02      0.00
  116                143.92      0.41      0.07
  117                599.86      1.70      0.98
  119               -705.47      2.00      1.33
  120               1080.78      3.07      2.93
  121                974.54      2.76      2.42
  122                351.67      2.24      2.64
  123               9529.05      4.33      1.63
  125              13026.63      5.91      2.92
  129               3100.94      2.20      0.70
  131               2838.57      2.01      0.60
  133              -2437.43      2.49      1.10
  135                382.06      0.27      0.01
  137                 46.17      0.07      0.00
  145                335.89      2.14      2.42
  147                329.53      2.10      2.34
  149               -739.47      4.72     10.44
  151               -732.77      4.68     10.27
  153                420.58      1.19      0.51
  155                450.42      1.28      0.58
  159               -459.65      1.30      0.60
  161               -488.89      3.12      4.85
  163               -165.43      0.47      0.09
  169                213.13      1.36      1.04
  171                479.50      1.36      0.65
  173               7778.55      3.53      1.12
  175               7722.61      3.51      1.11
  177               7677.99      3.48      1.10
  179               7431.97      3.37      1.03
  180                  2.81      0.01      0.00
  181                  2.81      0.01      0.00
  183               7243.55      3.29      0.98
  185                -15.72      0.10      0.01
  186                374.43      2.39      2.96
  187               6681.15      3.03      0.85
  189               4654.03      2.11      0.43
  191              -1984.63      1.41      0.31
  193              -1673.14      1.19      0.22
  195                469.69      1.33      0.63
  197                406.87      1.15      0.48
  199               -184.75      0.52      0.11
  201               -591.62      1.68      0.96
  202                550.02      3.51      6.04
  203                203.30      1.30      0.96
  204                550.02      1.56      0.84
  205                374.43      1.06      0.41
  207                388.05      1.10      0.44
  209                140.09      0.89      0.48
  211                546.68      1.55      0.83
  213                234.33      0.66      0.17
  215                256.22      0.73      0.20
  217               -215.08      0.61      0.15
  219               -228.95      0.65      0.17
  221                228.95      1.46      1.19
  223                107.70      0.31      0.04
  225                126.11      0.36      0.05
  229               4654.03      3.30      1.29
  231               4376.28      3.10      1.15
  233               4216.02      2.99      1.24
  235                148.88      0.42      0.07
  237                518.44      1.47      0.75
  238                665.46      1.89      1.19
  239                221.96      0.63      0.16
  240                665.46      1.89      1.19
  241                665.46      1.89      1.19
  243                664.52      1.06      0.29
  245                316.01      0.50      0.07
  247                194.97      0.31      0.03
  249                 95.41      0.15      0.01
  251                 44.63      0.09      0.00
  257                 24.62      0.07      0.00
  261                105.98      0.68      0.29
  263                 17.80      0.05      0.00
  269                339.15      0.96      0.34
  271                -18.87      0.12      0.01
  273                341.16      0.97      0.35
  275                112.63      0.32      0.04
  277                  4.69      0.01      0.00
  281                107.95      0.44      0.10
  283                180.34      0.51      0.11
  285                -89.05      0.25      0.03
  287                120.98      0.49      0.12
  289                -83.68      0.34      0.06
  291                 58.88      0.24      0.03
  293                -65.20      0.42      0.12
  295                 91.30      0.26      0.03
  297                457.92      2.92      4.30
  299                220.07      1.40      1.11
  301                220.07      1.40      1.11
  303                237.85      1.52      1.28
  305                141.94      0.40      0.07
  307                379.79      1.08      0.42
  309                175.44      1.12      0.73
  311                 80.78      0.23      0.02
  313                388.48      1.10      0.44
  315              -2142.83      1.52      0.36
  317                109.87      0.70      0.31
  319                 39.00      0.11      0.01
  321               7418.99      3.37      1.03
  323                112.09      0.32      0.04
  325                158.20      1.01      0.60
  329              13026.63      5.91      2.96
  330                  0.00      0.00      0.00
  333                 -0.00      0.00      0.00
  10                   0.00      0.00      0.00  Pump
  335              13026.63      0.00    -94.60  Pump
   
  Analysis ended Wed May 06 18:06:00 2020
