  Page 1                                    Wed May 06 18:06:33 2020

  ******************************************************************
  *                           E P A N E T                          *
  *                   Hydraulic and Water Quality                  *
  *                   Analysis for Pipe Networks                   *
  *                         Version 2.00.12                        *
  ******************************************************************
  
  Analysis begun Wed May 06 18:06:33 2020

   
  Hydraulic Status:
  -----------------------------------------------------------------------
     0:00:00: Balanced after 5 trials
     0:00:00: Reservoir River is emptying
     0:00:00: Reservoir Lake is closed
     0:00:00: Tank 1 is filling at 13.10 ft
     0:00:00: Tank 2 is emptying at 23.50 ft
     0:00:00: Tank 3 is filling at 29.00 ft
   
     0:05:00: Balanced after 2 trials
   
     0:10:00: Balanced after 2 trials
   
     0:15:00: Balanced after 2 trials
   
     0:20:00: Balanced after 2 trials
   
     0:25:00: Balanced after 2 trials
   
     0:30:00: Balanced after 2 trials
   
     0:35:00: Balanced after 2 trials
   
     0:40:00: Balanced after 2 trials
   
     0:45:00: Balanced after 2 trials
   
     0:50:00: Balanced after 2 trials
   
     0:55:00: Balanced after 2 trials
   
     1:00:00: Pump 10 changed by timer control
     1:00:00: Balanced after 7 trials
     1:00:00: Reservoir Lake is emptying
     1:00:00: Pump 10 changed from closed to open
   
     1:05:00: Balanced after 2 trials
   
     1:10:00: Balanced after 2 trials
   
     1:15:00: Balanced after 2 trials
   
     1:20:00: Balanced after 2 trials
   
     1:25:00: Balanced after 2 trials
   
     1:30:00: Balanced after 2 trials
   
     1:35:00: Balanced after 2 trials
   
     1:40:00: Balanced after 2 trials
   
     1:45:00: Balanced after 2 trials
   
     1:50:00: Balanced after 2 trials
   
     1:55:00: Balanced after 2 trials
   
     2:00:00: Balanced after 3 trials
     2:00:00: Tank 2 is filling at 21.01 ft
   
     2:05:00: Balanced after 1 trials
   
     2:10:00: Balanced after 1 trials
   
     2:15:00: Balanced after 1 trials
   
     2:20:00: Balanced after 1 trials
   
     2:25:00: Balanced after 1 trials
   
     2:30:00: Balanced after 1 trials
   
     2:35:00: Balanced after 1 trials
   
     2:40:00: Balanced after 1 trials
   
     2:45:00: Balanced after 1 trials
   
     2:50:00: Balanced after 1 trials
   
     2:55:00: Balanced after 1 trials
   
     3:00:00: Balanced after 3 trials
     3:00:00: Tank 2 is emptying at 21.76 ft
   
     3:05:00: Balanced after 1 trials
   
     3:10:00: Balanced after 1 trials
   
     3:15:00: Balanced after 1 trials
     3:15:00: Tank 2 is filling at 21.75 ft
   
     3:20:00: Balanced after 1 trials
   
     3:25:00: Balanced after 1 trials
   
     3:30:00: Balanced after 1 trials
   
     3:35:00: Balanced after 1 trials
   
     3:40:00: Balanced after 1 trials
   
     3:45:00: Balanced after 1 trials
   
     3:50:00: Balanced after 1 trials
   
     3:55:00: Balanced after 1 trials
   
     4:00:00: Balanced after 4 trials
   
     4:05:00: Balanced after 1 trials
   
     4:10:00: Balanced after 1 trials
   
     4:15:00: Balanced after 1 trials
   
     4:20:00: Balanced after 1 trials
   
     4:25:00: Balanced after 1 trials
   
     4:25:14: Pump 335 changed by Tank 1 control
     4:25:14: Pipe 330 changed by Tank 1 control
     4:25:14: Balanced after 4 trials
     4:25:14: Pipe 330 changed from closed to open
     4:25:14: Pump 335 changed from open to closed
   
     4:30:00: Balanced after 2 trials
   
     4:35:00: Balanced after 2 trials
   
     4:40:00: Balanced after 2 trials
   
     4:45:00: Balanced after 2 trials
   
     4:50:00: Balanced after 2 trials
   
     4:55:00: Balanced after 2 trials
   
     5:00:00: Balanced after 3 trials
     5:00:00: Tank 3 is emptying at 34.55 ft
   
     5:05:00: Balanced after 2 trials
   
     5:10:00: Balanced after 2 trials
   
     5:15:00: Balanced after 2 trials
   
     5:20:00: Balanced after 2 trials
   
     5:25:00: Balanced after 2 trials
   
     5:30:00: Balanced after 2 trials
   
     5:35:00: Balanced after 2 trials
   
     5:40:00: Balanced after 2 trials
   
     5:45:00: Balanced after 2 trials
   
     5:50:00: Balanced after 2 trials
   
     5:55:00: Balanced after 2 trials
   
     6:00:00: Balanced after 3 trials
     6:00:00: Tank 3 is filling at 34.28 ft
   
     6:05:00: Balanced after 1 trials
   
     6:10:00: Balanced after 1 trials
   
     6:15:00: Balanced after 1 trials
   
     6:20:00: Balanced after 1 trials
   
     6:25:00: Balanced after 1 trials
   
     6:30:00: Balanced after 1 trials
   
     6:35:00: Balanced after 1 trials
   
     6:40:00: Balanced after 1 trials
   
     6:45:00: Balanced after 1 trials
   
     6:50:00: Balanced after 1 trials
   
     6:55:00: Balanced after 1 trials
   
     7:00:00: Balanced after 4 trials
     7:00:00: Tank 1 is emptying at 20.80 ft
     7:00:00: Tank 2 is emptying at 25.60 ft
   
     7:05:00: Balanced after 1 trials
   
     7:10:00: Balanced after 1 trials
   
     7:15:00: Balanced after 1 trials
   
     7:20:00: Balanced after 1 trials
   
     7:25:00: Balanced after 1 trials
   
     7:30:00: Balanced after 1 trials
   
     7:35:00: Balanced after 1 trials
   
     7:40:00: Balanced after 1 trials
   
     7:45:00: Balanced after 1 trials
   
     7:50:00: Balanced after 1 trials
   
     7:55:00: Balanced after 1 trials
   
     8:00:00: Balanced after 4 trials
     8:00:00: Tank 1 is filling at 20.64 ft
     8:00:00: Tank 2 is filling at 25.47 ft
   
     8:05:00: Balanced after 2 trials
   
     8:10:00: Balanced after 2 trials
   
     8:15:00: Balanced after 2 trials
   
     8:20:00: Balanced after 2 trials
   
     8:25:00: Balanced after 2 trials
   
     8:30:00: Balanced after 2 trials
   
     8:35:00: Balanced after 2 trials
   
     8:40:00: Balanced after 2 trials
   
     8:45:00: Balanced after 2 trials
   
     8:50:00: Balanced after 2 trials
   
     8:55:00: Balanced after 2 trials
   
     9:00:00: Balanced after 4 trials
     9:00:00: Tank 1 is emptying at 21.82 ft
     9:00:00: Tank 3 is emptying at 35.22 ft
   
     9:05:00: Balanced after 1 trials
   
     9:10:00: Balanced after 1 trials
   
     9:15:00: Balanced after 1 trials
   
     9:20:00: Balanced after 1 trials
   
     9:25:00: Balanced after 1 trials
   
     9:30:00: Balanced after 1 trials
   
     9:35:00: Balanced after 1 trials
   
     9:40:00: Balanced after 1 trials
   
     9:45:00: Balanced after 1 trials
   
     9:50:00: Balanced after 1 trials
   
     9:55:00: Balanced after 1 trials
   
    10:00:00: Balanced after 3 trials
    10:00:00: Tank 2 is emptying at 26.89 ft
   
    10:05:00: Balanced after 1 trials
   
    10:10:00: Balanced after 1 trials
   
    10:15:00: Balanced after 1 trials
   
    10:20:00: Balanced after 1 trials
   
    10:25:00: Balanced after 1 trials
   
    10:30:00: Balanced after 1 trials
   
    10:35:00: Balanced after 1 trials
   
    10:40:00: Balanced after 1 trials
   
    10:45:00: Balanced after 1 trials
   
    10:50:00: Balanced after 1 trials
   
    10:55:00: Balanced after 1 trials
   
    11:00:00: Balanced after 3 trials
   
    11:05:00: Balanced after 1 trials
   
    11:10:00: Balanced after 1 trials
   
    11:15:00: Balanced after 1 trials
   
    11:20:00: Balanced after 1 trials
   
    11:25:00: Balanced after 1 trials
   
    11:30:00: Balanced after 1 trials
   
    11:35:00: Balanced after 1 trials
   
    11:40:00: Balanced after 1 trials
   
    11:45:00: Balanced after 1 trials
   
    11:50:00: Balanced after 1 trials
   
    11:55:00: Balanced after 1 trials
   
    12:00:00: Balanced after 4 trials
    12:00:00: Tank 1 is filling at 20.43 ft
   
    12:05:00: Balanced after 2 trials
   
    12:10:00: Balanced after 2 trials
   
    12:15:00: Balanced after 2 trials
   
    12:20:00: Balanced after 2 trials
   
    12:25:00: Balanced after 2 trials
   
    12:30:00: Balanced after 2 trials
   
    12:35:00: Balanced after 2 trials
   
    12:40:00: Balanced after 2 trials
    12:40:00: Tank 1 is closed at 20.47 ft
   
    12:45:00: Balanced after 2 trials
    12:45:00: Tank 1 is emptying at 20.47 ft
   
    12:50:00: Balanced after 2 trials
   
    12:55:00: Balanced after 2 trials
   
    13:00:00: Balanced after 3 trials
    13:00:00: Tank 2 is filling at 25.69 ft
   
    13:05:00: Balanced after 1 trials
   
    13:10:00: Balanced after 1 trials
   
    13:15:00: Balanced after 1 trials
   
    13:20:00: Balanced after 1 trials
   
    13:25:00: Balanced after 1 trials
   
    13:30:00: Balanced after 1 trials
   
    13:35:00: Balanced after 1 trials
   
    13:40:00: Balanced after 1 trials
   
    13:45:00: Balanced after 1 trials
   
    13:50:00: Balanced after 1 trials
   
    13:55:00: Balanced after 1 trials
   
    14:00:00: Balanced after 3 trials
    14:00:00: Tank 1 is filling at 20.17 ft
   
    14:05:00: Balanced after 2 trials
   
    14:10:00: Balanced after 2 trials
   
    14:15:00: Balanced after 2 trials
   
    14:20:00: Balanced after 2 trials
   
    14:25:00: Balanced after 2 trials
   
    14:30:00: Balanced after 2 trials
   
    14:35:00: Balanced after 2 trials
   
    14:40:00: Balanced after 2 trials
   
    14:45:00: Balanced after 2 trials
   
    14:50:00: Balanced after 2 trials
   
    14:55:00: Balanced after 2 trials
   
    15:00:00: Pump 10 changed by timer control
    15:00:00: Balanced after 5 trials
    15:00:00: Reservoir Lake is closed
    15:00:00: Tank 1 is emptying at 20.54 ft
    15:00:00: Pump 10 changed from open to closed
   
    15:05:00: Balanced after 2 trials
   
    15:10:00: Balanced after 2 trials
   
    15:15:00: Balanced after 2 trials
   
    15:20:00: Balanced after 2 trials
   
    15:25:00: Balanced after 2 trials
   
    15:30:00: Balanced after 2 trials
   
    15:35:00: Balanced after 2 trials
   
    15:40:00: Balanced after 2 trials
   
    15:45:00: Balanced after 2 trials
   
    15:50:00: Balanced after 2 trials
   
    15:55:00: Balanced after 2 trials
   
    16:00:00: Balanced after 3 trials
   
    16:05:00: Balanced after 2 trials
   
    16:10:00: Balanced after 2 trials
   
    16:15:00: Balanced after 2 trials
   
    16:20:00: Balanced after 2 trials
   
    16:25:00: Balanced after 2 trials
   
    16:30:00: Balanced after 2 trials
   
    16:35:00: Balanced after 2 trials
   
    16:40:00: Balanced after 2 trials
   
    16:45:00: Balanced after 2 trials
   
    16:50:00: Balanced after 2 trials
   
    16:55:00: Balanced after 2 trials
   
    17:00:00: Balanced after 3 trials
    17:00:00: Tank 2 is emptying at 26.97 ft
   
    17:05:00: Balanced after 1 trials
   
    17:10:00: Balanced after 1 trials
   
    17:15:00: Balanced after 1 trials
   
    17:20:00: Balanced after 1 trials
   
    17:25:00: Balanced after 1 trials
   
    17:30:00: Balanced after 1 trials
   
    17:35:00: Balanced after 1 trials
   
    17:40:00: Balanced after 1 trials
   
    17:45:00: Balanced after 1 trials
   
    17:50:00: Balanced after 1 trials
   
    17:55:00: Balanced after 1 trials
   
    18:00:00: Balanced after 3 trials
    18:00:00: Tank 2 is filling at 26.36 ft
   
    18:05:00: Balanced after 2 trials
   
    18:10:00: Balanced after 2 trials
   
    18:15:00: Balanced after 1 trials
    18:15:00: Tank 2 is emptying at 26.36 ft
   
    18:20:00: Balanced after 1 trials
   
    18:25:00: Balanced after 1 trials
   
    18:30:00: Balanced after 1 trials
   
    18:35:00: Balanced after 1 trials
   
    18:40:00: Balanced after 1 trials
   
    18:45:00: Balanced after 1 trials
   
    18:50:00: Balanced after 1 trials
   
    18:55:00: Balanced after 1 trials
   
    19:00:00: Balanced after 3 trials
   
    19:05:00: Balanced after 1 trials
   
    19:10:00: Balanced after 1 trials
   
    19:15:00: Balanced after 1 trials
   
    19:20:00: Balanced after 1 trials
   
    19:25:00: Balanced after 1 trials
   
    19:30:00: Balanced after 1 trials
   
    19:35:00: Balanced after 1 trials
   
    19:40:00: Balanced after 1 trials
   
    19:45:00: Balanced after 1 trials
   
    19:50:00: Balanced after 1 trials
   
    19:55:00: Balanced after 1 trials
   
    19:56:00: Pump 335 changed by Tank 1 control
    19:56:00: Pipe 330 changed by Tank 1 control
    19:56:00: Balanced after 5 trials
    19:56:00: Tank 1 is filling at 17.10 ft
    19:56:00: Tank 3 is filling at 29.80 ft
    19:56:00: Pipe 330 changed from open to closed
    19:56:00: Pump 335 changed from closed to open
   
    20:00:00: Balanced after 3 trials
    20:00:00: Tank 2 is filling at 25.73 ft
   
    20:05:00: Balanced after 1 trials
   
    20:10:00: Balanced after 1 trials
   
    20:15:00: Balanced after 1 trials
   
    20:20:00: Balanced after 1 trials
   
    20:25:00: Balanced after 1 trials
   
    20:30:00: Balanced after 1 trials
   
    20:35:00: Balanced after 1 trials
   
    20:40:00: Balanced after 1 trials
   
    20:45:00: Balanced after 1 trials
   
    20:50:00: Balanced after 1 trials
   
    20:55:00: Balanced after 1 trials
   
    21:00:00: Balanced after 3 trials
    21:00:00: Tank 1 is emptying at 17.85 ft
    21:00:00: Tank 2 is emptying at 26.11 ft
   
    21:05:00: Balanced after 2 trials
   
    21:10:00: Balanced after 2 trials
   
    21:15:00: Balanced after 2 trials
   
    21:20:00: Balanced after 2 trials
   
    21:25:00: Balanced after 2 trials
   
    21:30:00: Balanced after 2 trials
   
    21:35:00: Balanced after 2 trials
   
    21:40:00: Balanced after 2 trials
   
    21:45:00: Balanced after 2 trials
    21:45:00: Tank 1 is filling at 17.79 ft
   
    21:50:00: Balanced after 2 trials
   
    21:55:00: Balanced after 2 trials
   
    22:00:00: Balanced after 4 trials
    22:00:00: Tank 1 is emptying at 17.80 ft
   
    22:05:00: Balanced after 2 trials
   
    22:10:00: Balanced after 2 trials
   
    22:15:00: Balanced after 2 trials
   
    22:20:00: Balanced after 2 trials
   
    22:25:00: Balanced after 2 trials
   
    22:30:00: Balanced after 2 trials
   
    22:35:00: Balanced after 2 trials
   
    22:40:00: Balanced after 2 trials
   
    22:45:00: Balanced after 2 trials
   
    22:50:00: Balanced after 2 trials
   
    22:55:00: Balanced after 2 trials
   
    23:00:00: Balanced after 3 trials
   
    23:05:00: Balanced after 2 trials
   
    23:10:00: Balanced after 2 trials
   
    23:15:00: Balanced after 2 trials
   
    23:20:00: Balanced after 2 trials
   
    23:25:00: Balanced after 2 trials
   
    23:30:00: Balanced after 2 trials
   
    23:35:00: Balanced after 2 trials
   
    23:40:00: Balanced after 2 trials
   
    23:45:00: Balanced after 2 trials
   
    23:50:00: Balanced after 2 trials
   
    23:55:00: Balanced after 2 trials
   
    24:00:00: Balanced after 3 trials
    24:00:00: Tank 1 is filling at 16.04 ft
   
   
  Node Results at 0:00:00 hrs:
  --------------------------------------------------------
                     Demand      Head  Pressure  Chemical
  Node                  gpm        ft       psi      mg/L
  --------------------------------------------------------
  10                   0.00    145.78     -0.53      0.00
  15                 633.53    124.79     40.21      0.00
  20                   0.00    158.00     12.57      0.00
  35                1816.20    145.57     57.66      0.00
  40                   0.00    145.00      5.68      0.00
  50                   0.00    140.00     10.18      0.00
  60                   0.00    209.01     90.56      0.00
  601                  0.00    302.46    131.06      0.00
  61                   0.00    302.46    131.06      0.00
  101                237.44    145.78     44.97      0.00
  103                166.50    145.75     44.52      0.00
  105                169.21    147.05     51.37      0.00
  107                 68.30    147.04     54.18      0.00
  109                289.25    145.75     54.36      0.00
  111                177.42    146.22     59.02      0.00
  113                 25.01    146.23     62.49      0.00
  115                 65.13    147.08     57.66      0.00
  117                147.14    150.19     59.19      0.00
  119                220.16    157.56     67.41      0.00
  120                  0.00    155.19     67.24      0.00
  121                 52.04    161.02     70.64      0.00
  123                  0.00    165.48     66.94      0.00
  125                 57.00    160.44     64.75      0.00
  127                 22.08    158.75     44.52      0.00
  129                  0.00    158.73     46.68      0.00
  131                 53.44    158.72     66.17      0.00
  139                  7.36    153.03     52.88      0.00
  141                 12.31    148.97     62.81      0.00
  143                  7.75    137.74     61.63      0.00
  145                 34.54    150.25     64.67      0.00
  147                 10.69    151.21     57.51      0.00
  149                 33.84    151.62     58.76      0.00
  151                180.60    155.54     52.88      0.00
  153                 55.21    155.64     38.75      0.00
  157                 64.74    155.10     61.53      0.00
  159                 51.65    151.70     63.13      0.00
  161                 19.75    149.39     63.00      0.00
  163                 11.77    148.93     62.36      0.00
  164                  0.00    148.93     62.36      0.00
  166                  3.25    148.93     65.40      0.00
  167                 18.20    147.03     65.87      0.00
  169                  0.00    147.03     65.87      0.00
  171                 49.17    145.92     64.96      0.00
  173                  0.00    145.89     64.95      0.00
  177                 72.71    145.57     59.61      0.00
  179                  0.00    145.56     59.61      0.00
  181                  0.00    145.58     59.61      0.00
  183                  0.00    145.57     58.31      0.00
  184                  0.00    144.38     55.63      0.00
  185                 32.06    144.99     55.89      0.00
  187                  0.00    145.76     57.74      0.00
  189                134.90    146.05     61.55      0.00
  191                102.38    146.11     52.47      0.00
  193                 89.14    146.19     55.55      0.00
  195                  0.00    146.26     56.66      0.00
  197                 21.30    146.13     53.35      0.00
  199                149.15    140.59     61.78      0.00
  201                 55.76    139.83     60.55      0.00
  203               4566.03    139.66     59.65      0.00
  204                  0.00    145.49     53.94      0.00
  205                 81.70    140.57     51.81      0.00
  206                  0.00    139.70     60.10      0.00
  207                 86.74    139.86     56.70      0.00
  208                  0.00    139.52     53.52      0.00
  209                  1.09    139.20     61.18      0.00
  211                 10.84    139.10     57.24      0.00
  213                 17.42    139.04     57.21      0.00
  215                115.24    138.87     57.14      0.00
  217                 30.27    138.86     57.57      0.00
  219                 51.65    138.84     58.43      0.00
  225                 28.50    138.85     56.70      0.00
  229                 80.22    138.97     55.67      0.00
  231                 20.60    138.97     58.05      0.00
  237                 19.51    139.07     54.19      0.00
  239                 55.76    139.07     54.63      0.00
  241                  0.00    139.07     54.63      0.00
  243                  5.43    139.07     54.19      0.00
  247                 87.97    139.08     52.46      0.00
  249                  0.00    139.08     52.46      0.00
  251                 30.20    139.09     47.27      0.00
  253                 68.15    139.23     44.73      0.00
  255                 50.49    139.28     48.65      0.00
  257                  0.00    152.12     58.55      0.00
  259                  0.00    151.70     54.90      0.00
  261                  0.00    150.15     65.06      0.00
  263                  0.00    149.99     64.99      0.00
  265                  0.00    147.64     63.97      0.00
  267                  0.00    146.19     54.25      0.00
  269                  0.00    146.41     63.44      0.00
  271                  0.00    145.68     60.52      0.00
  273                  0.00    140.56     57.44      0.00
  275                  0.00    139.85     56.27      0.00
  River           -13157.45    220.00      0.00      0.00  Reservoir
  Lake                 0.00    167.00      0.00      0.00  Reservoir
  1                  403.62    145.00      5.68      0.00  Tank
  2                 -328.15    140.00     10.18      0.00  Tank
  3                 2256.09    158.00     12.57      0.00  Tank
   
   
  Link Results at 0:00:00 hrs:
  ----------------------------------------------
                       Flow  Velocity  Headloss
  Link                  gpm       fps   /1000ft
  ----------------------------------------------
  20               -2256.09      0.09      0.00
  40                -403.62      0.02      0.00
  50                 328.15      0.01      0.00
  60               13157.45      9.33      8.93
  101                  0.00      0.00      0.00
  103                178.73      0.29      0.03
  105               -416.16      1.18      0.50
  107                 44.52      0.13      0.01
  109                 12.23      0.02      0.00
  111               -277.02      0.79      0.24
  112                514.21      1.46      0.74
  113                -34.78      0.10      0.01
  114                131.20      0.84      0.42
  115                -23.78      0.15      0.02
  116                 71.41      0.20      0.02
  117                629.89      1.79      1.08
  119               -734.32      2.08      1.43
  120               1144.76      3.25      3.26
  121               1028.30      2.92      2.67
  122                366.58      2.34      2.85
  123               9827.17      4.46      1.73
  125              13157.45      5.97      2.97
  129               2911.67      2.06      0.63
  131               2640.45      1.87      0.52
  133              -2256.09      2.30      0.95
  135                362.29      0.26      0.01
  137                 53.44      0.09      0.00
  145                308.85      1.97      2.07
  147                301.49      1.92      1.98
  149               -641.28      4.09      8.02
  151               -633.53      4.04      7.84
  153                352.10      1.00      0.37
  155                386.64      1.10      0.44
  159               -397.33      1.13      0.46
  161               -431.16      2.75      3.85
  163               -159.00      0.45      0.08
  169                214.21      1.37      1.05
  171                452.76      1.28      0.58
  173               8009.48      3.64      1.18
  175               7944.74      3.61      1.17
  177               7893.09      3.58      1.15
  179               7627.21      3.46      1.08
  180                  3.25      0.01      0.00
  181                  3.25      0.01      0.00
  183               7414.01      3.37      1.03
  185                -18.20      0.12      0.01
  186                358.74      2.29      2.74
  187               6802.09      3.09      0.88
  189               4733.09      2.15      0.45
  191              -2019.82      1.43      0.32
  193              -1816.20      1.29      0.26
  195                356.87      1.01      0.38
  197                284.16      0.81      0.25
  199               -119.46      0.34      0.05
  201               -403.62      1.14      0.47
  202                551.48      3.52      6.07
  203                224.81      1.43      1.15
  204                551.48      1.56      0.84
  205                358.74      1.02      0.38
  207                344.27      0.98      0.35
  209                154.01      0.98      0.57
  211                593.72      1.68      0.97
  213                204.73      0.58      0.13
  215                192.71      0.55      0.12
  217               -233.86      0.66      0.17
  219               -246.13      0.70      0.19
  221                246.13      1.57      1.36
  223                 73.24      0.21      0.02
  225                 94.54      0.27      0.03
  229               4733.09      3.36      1.33
  231               4485.54      3.18      1.20
  233               4566.03      3.24      1.44
  235                 98.40      0.28      0.03
  237                455.68      1.29      0.59
  238                345.20      0.98      0.35
  239                -23.75      0.07      0.00
  240                345.20      0.98      0.35
  241                345.20      0.98      0.35
  243                344.11      0.55      0.09
  245                275.54      0.44      0.06
  247                225.66      0.36      0.04
  249                110.43      0.18      0.01
  251                 51.65      0.11      0.00
  257                 28.50      0.08      0.00
  261                 32.46      0.21      0.03
  263                 20.60      0.06      0.00
  269                 57.73      0.16      0.01
  271                 68.37      0.44      0.13
  273                -30.15      0.09      0.00
  275                -29.10      0.08      0.00
  277                  5.43      0.02      0.00
  281                -34.53      0.14      0.01
  283                -56.81      0.16      0.01
  285                  7.91      0.02      0.00
  287               -130.41      0.53      0.14
  289                328.15      1.34      0.78
  291                 68.15      0.28      0.04
  293                 79.11      0.50      0.17
  295                -48.91      0.14      0.01
  297                483.04      3.08      4.75
  299                232.08      1.48      1.22
  301                232.08      1.48      1.22
  303                250.96      1.60      1.41
  305                146.85      0.42      0.07
  307                397.81      1.13      0.46
  309                198.18      1.26      0.91
  311                 -5.46      0.02      0.00
  313                440.47      1.25      0.56
  315              -2173.07      1.54      0.36
  317                112.50      0.72      0.32
  319                -14.10      0.04      0.00
  321               7612.19      3.46      1.08
  323               -136.25      0.39      0.06
  325                153.25      0.98      0.57
  329              13157.45      5.97      3.01
  330                  0.00      0.00      0.00
  333                 -0.00      0.00      0.00
  10                   0.00      0.00      0.00  Pump
  335              13157.45      0.00    -93.45  Pump
   
   
  Node Results at 0:05:00 hrs:
  --------------------------------------------------------
                     Demand      Head  Pressure  Chemical
  Node                  gpm        ft       psi      mg/L
  --------------------------------------------------------
  10                   0.00    145.82     -0.51      0.00
  15                 633.53    124.85     40.23      0.00
  20                   0.00    158.07     12.60      0.00
  35                1816.20    145.61     57.68      0.00
  40                   0.00    145.05      5.70      0.00
  50                   0.00    139.89     10.13      0.00
  60                   0.00    209.01     90.57      0.00
  601                  0.00    302.48    131.06      0.00
  61                   0.00    302.48    131.06      0.00
  101                237.44    145.82     44.99      0.00
  103                166.50    145.79     44.54      0.00
  105                169.21    147.09     51.39      0.00
  107                 68.30    147.08     54.20      0.00
  109                289.25    145.79     54.37      0.00
  111                177.42    146.26     59.04      0.00
  113                 25.01    146.26     62.51      0.00
  115                 65.13    147.11     57.68      0.00
  117                147.14    150.24     59.20      0.00
  119                220.16    157.61     67.43      0.00
  120                  0.00    155.23     67.26      0.00
  121                 52.04    161.08     70.66      0.00
  123                  0.00    165.53     66.96      0.00
  125                 57.00    160.50     64.78      0.00
  127                 22.08    158.81     44.55      0.00
  129                  0.00    158.80     46.71      0.00
  131                 53.44    158.78     66.20      0.00
  139                  7.36    153.09     52.90      0.00
  141                 12.31    149.02     62.84      0.00
  143                  7.75    137.79     61.66      0.00
  145                 34.54    150.31     64.70      0.00
  147                 10.69    151.27     57.53      0.00
  149                 33.84    151.67     58.79      0.00
  151                180.60    155.59     52.90      0.00
  153                 55.21    155.69     38.78      0.00
  157                 64.74    155.14     61.55      0.00
  159                 51.65    151.74     63.15      0.00
  161                 19.75    149.43     63.02      0.00
  163                 11.77    148.97     62.38      0.00
  164                  0.00    148.97     62.38      0.00
  166                  3.25    148.97     65.41      0.00
  167                 18.20    147.06     65.89      0.00
  169                  0.00    147.07     65.89      0.00
  171                 49.17    145.95     64.97      0.00
  173                  0.00    145.93     64.96      0.00
  177                 72.71    145.61     59.62      0.00
  179                  0.00    145.60     59.62      0.00
  181                  0.00    145.62     59.63      0.00
  183                  0.00    145.61     58.33      0.00
  184                  0.00    144.41     55.64      0.00
  185                 32.06    145.02     55.90      0.00
  187                  0.00    145.80     57.76      0.00
  189                134.90    146.08     61.56      0.00
  191                102.38    146.14     52.49      0.00
  193                 89.14    146.23     55.56      0.00
  195                  0.00    146.30     56.68      0.00
  197                 21.30    146.17     53.37      0.00
  199                149.15    140.60     61.79      0.00
  201                 55.76    139.85     60.55      0.00
  203               4566.03    139.67     59.65      0.00
  204                  0.00    145.52     53.96      0.00
  205                 81.70    140.58     51.81      0.00
  206                  0.00    139.69     60.10      0.00
  207                 86.74    139.86     56.70      0.00
  208                  0.00    139.50     53.51      0.00
  209                  1.09    139.17     61.17      0.00
  211                 10.84    139.06     57.22      0.00
  213                 17.42    139.00     57.20      0.00
  215                115.24    138.83     57.12      0.00
  217                 30.27    138.82     57.55      0.00
  219                 51.65    138.81     58.41      0.00
  225                 28.50    138.81     56.68      0.00
  229                 80.22    138.93     55.65      0.00
  231                 20.60    138.93     58.03      0.00
  237                 19.51    139.03     54.17      0.00
  239                 55.76    139.03     54.61      0.00
  241                  0.00    139.03     54.61      0.00
  243                  5.43    139.03     54.17      0.00
  247                 87.97    139.03     52.44      0.00
  249                  0.00    139.03     52.44      0.00
  251                 30.20    139.04     47.25      0.00
  253                 68.15    139.16     44.70      0.00
  255                 50.49    139.21     48.62      0.00
  257                  0.00    152.17     58.57      0.00
  259                  0.00    151.74     54.92      0.00
  261                  0.00    150.19     65.08      0.00
  263                  0.00    150.03     65.01      0.00
  265                  0.00    147.67     63.99      0.00
  267                  0.00    146.23     54.26      0.00
  269                  0.00    146.44     63.45      0.00
  271                  0.00    145.71     60.54      0.00
  273                  0.00    140.58     57.45      0.00
  275                  0.00    139.86     56.27      0.00
  River           -13155.67    220.00      0.00      0.00  Reservoir
  Lake                 0.00    167.00      0.00      0.00  Reservoir
  1                  399.10    145.05      5.70      0.00  Tank
  2                 -317.20    139.89     10.13      0.00  Tank
  3                 2247.87    158.07     12.60      0.00  Tank
   
   
  Link Results at 0:05:00 hrs:
  ----------------------------------------------
                       Flow  Velocity  Headloss
  Link                  gpm       fps   /1000ft
  ----------------------------------------------
  20               -2247.87      0.09      0.00
  40                -399.10      0.02      0.00
  50                 317.20      0.01      0.00
  60               13155.67      9.33      8.92
  101                  0.00      0.00      0.00
  103                178.93      0.29      0.03
  105               -416.37      1.18      0.50
  107                 44.66      0.13      0.01
  109                 12.43      0.02      0.00
  111               -276.82      0.79      0.23
  112                514.68      1.46      0.74
  113                -34.40      0.10      0.00
  114                131.34      0.84      0.43
  115                -23.64      0.15      0.02
  116                 71.93      0.20      0.02
  117                630.24      1.79      1.08
  119               -734.78      2.08      1.43
  120               1145.37      3.25      3.26
  121               1028.86      2.92      2.67
  122                366.79      2.34      2.85
  123               9833.12      4.46      1.73
  125              13155.67      5.97      2.97
  129               2903.72      2.06      0.62
  131               2632.40      1.87      0.52
  133              -2247.87      2.30      0.94
  135                362.45      0.26      0.01
  137                 53.44      0.09      0.00
  145                309.01      1.97      2.08
  147                301.65      1.93      1.98
  149               -641.28      4.09      8.02
  151               -633.53      4.04      7.84
  153                351.94      1.00      0.37
  155                386.48      1.10      0.44
  159               -397.17      1.13      0.46
  161               -431.01      2.75      3.84
  163               -159.11      0.45      0.08
  169                214.32      1.37      1.05
  171                452.50      1.28      0.58
  173               8015.10      3.64      1.19
  175               7950.36      3.61      1.17
  177               7898.71      3.59      1.15
  179               7632.74      3.46      1.08
  180                  3.25      0.01      0.00
  181                  3.25      0.01      0.00
  183               7419.54      3.37      1.03
  185                -18.20      0.12      0.01
  186                359.40      2.29      2.75
  187               6807.64      3.09      0.88
  189               4742.75      2.15      0.45
  191              -2015.72      1.43      0.32
  193              -1816.20      1.29      0.26
  195                352.86      1.00      0.37
  197                280.15      0.79      0.24
  199               -118.95      0.34      0.05
  201               -399.10      1.13      0.46
  202                552.78      3.53      6.09
  203                225.45      1.44      1.16
  204                552.78      1.57      0.85
  205                359.40      1.02      0.38
  207                344.40      0.98      0.35
  209                154.24      0.98      0.57
  211                593.70      1.68      0.97
  213                205.16      0.58      0.13
  215                193.18      0.55      0.12
  217               -234.00      0.66      0.17
  219               -246.22      0.70      0.19
  221                246.22      1.57      1.36
  223                 73.53      0.21      0.02
  225                 94.83      0.27      0.03
  229               4742.75      3.36      1.33
  231               4494.01      3.19      1.20
  233               4566.03      3.24      1.44
  235                 99.59      0.28      0.04
  237                457.81      1.30      0.60
  238                356.15      1.01      0.37
  239                -14.93      0.04      0.00
  240                356.15      1.01      0.37
  241                356.15      1.01      0.37
  243                355.06      0.57      0.09
  245                276.80      0.44      0.06
  247                225.66      0.36      0.04
  249                110.43      0.18      0.01
  251                 51.65      0.11      0.00
  257                 28.50      0.08      0.00
  261                 33.71      0.22      0.03
  263                 20.60      0.06      0.00
  269                 67.43      0.19      0.02
  271                 67.12      0.43      0.12
  273                -19.20      0.05      0.00
  275                -24.74      0.07      0.00
  277                  5.43      0.02      0.00
  281                -30.16      0.12      0.01
  283                -50.22      0.14      0.01
  285                  5.33      0.02      0.00
  287               -123.47      0.50      0.13
  289                317.20      1.30      0.73
  291                 68.15      0.28      0.04
  293                 75.09      0.48      0.15
  295                -44.89      0.13      0.01
  297                483.30      3.08      4.75
  299                232.21      1.48      1.22
  301                232.21      1.48      1.22
  303                251.10      1.60      1.41
  305                146.93      0.42      0.07
  307                398.03      1.13      0.46
  309                198.17      1.26      0.91
  311                 -4.99      0.01      0.00
  313                440.35      1.25      0.55
  315              -2169.06      1.54      0.36
  317                112.86      0.72      0.32
  319                -13.27      0.04      0.00
  321               7617.71      3.46      1.08
  323               -127.79      0.36      0.06
  325                153.34      0.98      0.57
  329              13155.67      5.97      3.01
  330                  0.00      0.00      0.00
  333                 -0.00      0.00      0.00
  10                   0.00      0.00      0.00  Pump
  335              13155.67      0.00    -93.46  Pump
   
   
  Node Results at 0:10:00 hrs:
  --------------------------------------------------------
                     Demand      Head  Pressure  Chemical
  Node                  gpm        ft       psi      mg/L
  --------------------------------------------------------
  10                   0.00    145.86     -0.49      0.00
  15                 633.53    124.91     40.26      0.00
  20                   0.00    158.14     12.63      0.00
  35                1816.20    145.64     57.69      0.00
  40                   0.00    145.09      5.72      0.00
  50                   0.00    139.78     10.09      0.00
  60                   0.00    209.02     90.57      0.00
  601                  0.00    302.49    131.07      0.00
  61                   0.00    302.49    131.07      0.00
  101                237.44    145.86     45.00      0.00
  103                166.50    145.82     44.55      0.00
  105                169.21    147.13     51.40      0.00
  107                 68.30    147.12     54.21      0.00
  109                289.25    145.82     54.39      0.00
  111                177.42    146.29     59.06      0.00
  113                 25.01    146.30     62.53      0.00
  115                 65.13    147.15     57.70      0.00
  117                147.14    150.28     59.22      0.00
  119                220.16    157.66     67.45      0.00
  120                  0.00    155.28     67.28      0.00
  121                 52.04    161.13     70.68      0.00
  123                  0.00    165.59     66.98      0.00
  125                 57.00    160.55     64.80      0.00
  127                 22.08    158.88     44.58      0.00
  129                  0.00    158.87     46.74      0.00
  131                 53.44    158.85     66.23      0.00
  139                  7.36    153.15     52.93      0.00
  141                 12.31    149.08     62.86      0.00
  143                  7.75    137.85     61.68      0.00
  145                 34.54    150.37     64.72      0.00
  147                 10.69    151.32     57.55      0.00
  149                 33.84    151.73     58.81      0.00
  151                180.60    155.65     52.93      0.00
  153                 55.21    155.74     38.80      0.00
  157                 64.74    155.19     61.57      0.00
  159                 51.65    151.79     63.17      0.00
  161                 19.75    149.47     63.03      0.00
  163                 11.77    149.01     62.40      0.00
  164                  0.00    149.01     62.40      0.00
  166                  3.25    149.01     65.43      0.00
  167                 18.20    147.10     65.91      0.00
  169                  0.00    147.10     65.91      0.00
  171                 49.17    145.99     64.99      0.00
  173                  0.00    145.96     64.98      0.00
  177                 72.71    145.64     59.64      0.00
  179                  0.00    145.63     59.64      0.00
  181                  0.00    145.65     59.64      0.00
  183                  0.00    145.64     58.34      0.00
  184                  0.00    144.44     55.65      0.00
  185                 32.06    145.05     55.92      0.00
  187                  0.00    145.83     57.77      0.00
  189                134.90    146.12     61.58      0.00
  191                102.38    146.18     52.51      0.00
  193                 89.14    146.27     55.58      0.00
  195                  0.00    146.34     56.69      0.00
  197                 21.30    146.20     53.38      0.00
  199                149.15    140.62     61.80      0.00
  201                 55.76    139.86     60.56      0.00
  203               4566.03    139.68     59.66      0.00
  204                  0.00    145.56     53.97      0.00
  205                 81.70    140.59     51.82      0.00
  206                  0.00    139.69     60.10      0.00
  207                 86.74    139.87     56.71      0.00
  208                  0.00    139.49     53.51      0.00
  209                  1.09    139.14     61.16      0.00
  211                 10.84    139.02     57.21      0.00
  213                 17.42    138.97     57.18      0.00
  215                115.24    138.80     57.11      0.00
  217                 30.27    138.78     57.53      0.00
  219                 51.65    138.77     58.40      0.00
  225                 28.50    138.77     56.66      0.00
  229                 80.22    138.89     55.63      0.00
  231                 20.60    138.88     58.01      0.00
  237                 19.51    138.98     54.15      0.00
  239                 55.76    138.98     54.59      0.00
  241                  0.00    138.98     54.59      0.00
  243                  5.43    138.98     54.15      0.00
  247                 87.97    138.98     52.42      0.00
  249                  0.00    138.98     52.42      0.00
  251                 30.20    138.99     47.23      0.00
  253                 68.15    139.10     44.67      0.00
  255                 50.49    139.14     48.59      0.00
  257                  0.00    152.21     58.59      0.00
  259                  0.00    151.78     54.94      0.00
  261                  0.00    150.23     65.10      0.00
  263                  0.00    150.07     65.03      0.00
  265                  0.00    147.71     64.00      0.00
  267                  0.00    146.27     54.28      0.00
  269                  0.00    146.48     63.47      0.00
  271                  0.00    145.75     60.55      0.00
  273                  0.00    140.59     57.45      0.00
  275                  0.00    139.87     56.27      0.00
  River           -13153.90    220.00      0.00      0.00  Reservoir
  Lake                 0.00    167.00      0.00      0.00  Reservoir
  1                  394.75    145.09      5.72      0.00  Tank
  2                 -306.45    139.78     10.09      0.00  Tank
  3                 2239.70    158.14     12.63      0.00  Tank
   
   
  Link Results at 0:10:00 hrs:
  ----------------------------------------------
                       Flow  Velocity  Headloss
  Link                  gpm       fps   /1000ft
  ----------------------------------------------
  20               -2239.70      0.09      0.00
  40                -394.75      0.02      0.00
  50                 306.45      0.01      0.00
  60               13153.90      9.33      8.92
  101                  0.00      0.00      0.00
  103                179.14      0.29      0.03
  105               -416.57      1.18      0.50
  107                 44.80      0.13      0.01
  109                 12.64      0.02      0.00
  111               -276.61      0.78      0.23
  112                515.15      1.46      0.74
  113                -34.02      0.10      0.00
  114                131.47      0.84      0.43
  115                -23.50      0.15      0.02
  116                 72.44      0.21      0.02
  117                630.58      1.79      1.08
  119               -735.25      2.09      1.43
  120               1145.96      3.25      3.26
  121               1029.40      2.92      2.67
  122                367.00      2.34      2.85
  123               9839.05      4.47      1.73
  125              13153.90      5.97      2.97
  129               2895.81      2.05      0.62
  131               2624.38      1.86      0.52
  133              -2239.70      2.29      0.94
  135                362.61      0.26      0.01
  137                 53.44      0.09      0.00
  145                309.17      1.97      2.08
  147                301.81      1.93      1.99
  149               -641.28      4.09      8.02
  151               -633.53      4.04      7.84
  153                351.79      1.00      0.37
  155                386.32      1.10      0.44
  159               -397.01      1.13      0.46
  161               -430.85      2.75      3.84
  163               -159.22      0.45      0.08
  169                214.43      1.37      1.05
  171                452.23      1.28      0.58
  173               8020.69      3.64      1.19
  175               7955.95      3.61      1.17
  177               7904.30      3.59      1.16
  179               7638.23      3.47      1.09
  180                  3.25      0.01      0.00
  181                  3.25      0.01      0.00
  183               7425.04      3.37      1.03
  185                -18.20      0.12      0.01
  186                360.05      2.30      2.75
  187               6813.16      3.09      0.88
  189               4752.23      2.16      0.45
  191              -2011.75      1.43      0.32
  193              -1816.20      1.29      0.26
  195                348.99      0.99      0.36
  197                276.27      0.78      0.23
  199               -118.48      0.34      0.05
  201               -394.75      1.12      0.45
  202                554.05      3.54      6.12
  203                226.06      1.44      1.16
  204                554.05      1.57      0.85
  205                360.05      1.02      0.38
  207                344.54      0.98      0.35
  209                154.45      0.99      0.57
  211                593.68      1.68      0.96
  213                205.59      0.58      0.14
  215                193.65      0.55      0.12
  217               -234.14      0.66      0.17
  219               -246.32      0.70      0.19
  221                246.32      1.57      1.36
  223                 73.83      0.21      0.02
  225                 95.13      0.27      0.03
  229               4752.23      3.37      1.34
  231               4502.53      3.19      1.21
  233               4566.03      3.24      1.44
  235                100.55      0.29      0.04
  237                459.68      1.30      0.60
  238                366.90      1.04      0.40
  239                 -6.04      0.02      0.00
  240                366.90      1.04      0.40
  241                366.90      1.04      0.40
  243                365.81      0.58      0.10
  245                278.14      0.44      0.06
  247                225.66      0.36      0.04
  249                110.43      0.18      0.01
  251                 51.65      0.11      0.00
  257                 28.50      0.08      0.00
  261                 35.06      0.22      0.04
  263                 20.60      0.06      0.00
  269                 76.83      0.22      0.02
  271                 65.77      0.42      0.12
  273                 -8.45      0.02      0.00
  275                -20.71      0.06      0.00
  277                  5.43      0.02      0.00
  281                -26.14      0.11      0.01
  283                -43.50      0.12      0.01
  285                  2.57      0.01      0.00
  287               -116.68      0.48      0.12
  289                306.45      1.25      0.69
  291                 68.15      0.28      0.04
  293                 71.13      0.45      0.14
  295                -40.93      0.12      0.01
  297                483.56      3.09      4.76
  299                232.33      1.48      1.22
  301                232.33      1.48      1.22
  303                251.23      1.60      1.41
  305                147.02      0.42      0.07
  307                398.25      1.13      0.46
  309                198.17      1.26      0.91
  311                 -4.52      0.01      0.00
  313                440.24      1.25      0.55
  315              -2165.19      1.54      0.36
  317                113.22      0.72      0.32
  319                -12.67      0.04      0.00
  321               7623.21      3.46      1.08
  323               -119.26      0.34      0.05
  325                153.44      0.98      0.57
  329              13153.90      5.97      3.01
  330                  0.00      0.00      0.00
  333                 -0.00      0.00      0.00
  10                   0.00      0.00      0.00  Pump
  335              13153.90      0.00    -93.48  Pump
   
   
  Node Results at 0:15:00 hrs:
  --------------------------------------------------------
                     Demand      Head  Pressure  Chemical
  Node                  gpm        ft       psi      mg/L
  --------------------------------------------------------
  10                   0.00    145.90     -0.48      0.00
  15                 633.53    124.96     40.28      0.00
  20                   0.00    158.21     12.66      0.00
  35                1816.20    145.68     57.71      0.00
  40                   0.00    145.14      5.74      0.00
  50                   0.00    139.68     10.04      0.00
  60                   0.00    209.02     90.57      0.00
  601                  0.00    302.51    131.08      0.00
  61                   0.00    302.51    131.08      0.00
  101                237.44    145.90     45.02      0.00
  103                166.50    145.86     44.57      0.00
  105                169.21    147.17     51.42      0.00
  107                 68.30    147.16     54.23      0.00
  109                289.25    145.86     54.41      0.00
  111                177.42    146.33     59.07      0.00
  113                 25.01    146.34     62.54      0.00
  115                 65.13    147.19     57.71      0.00
  117                147.14    150.32     59.24      0.00
  119                220.16    157.71     67.47      0.00
  120                  0.00    155.33     67.30      0.00
  121                 52.04    161.18     70.71      0.00
  123                  0.00    165.64     67.00      0.00
  125                 57.00    160.61     64.83      0.00
  127                 22.08    158.94     44.61      0.00
  129                  0.00    158.93     46.77      0.00
  131                 53.44    158.91     66.26      0.00
  139                  7.36    153.21     52.96      0.00
  141                 12.31    149.14     62.89      0.00
  143                  7.75    137.91     61.70      0.00
  145                 34.54    150.42     64.74      0.00
  147                 10.69    151.38     57.58      0.00
  149                 33.84    151.78     58.83      0.00
  151                180.60    155.70     52.95      0.00
  153                 55.21    155.80     38.82      0.00
  157                 64.74    155.24     61.59      0.00
  159                 51.65    151.83     63.19      0.00
  161                 19.75    149.51     63.05      0.00
  163                 11.77    149.04     62.41      0.00
  164                  0.00    149.04     62.41      0.00
  166                  3.25    149.04     65.45      0.00
  167                 18.20    147.14     65.92      0.00
  169                  0.00    147.14     65.92      0.00
  171                 49.17    146.02     65.00      0.00
  173                  0.00    146.00     64.99      0.00
  177                 72.71    145.68     59.66      0.00
  179                  0.00    145.67     59.65      0.00
  181                  0.00    145.69     59.66      0.00
  183                  0.00    145.68     58.36      0.00
  184                  0.00    144.47     55.67      0.00
  185                 32.06    145.08     55.93      0.00
  187                  0.00    145.87     57.79      0.00
  189                134.90    146.16     61.60      0.00
  191                102.38    146.22     52.52      0.00
  193                 89.14    146.31     55.59      0.00
  195                  0.00    146.37     56.71      0.00
  197                 21.30    146.24     53.40      0.00
  199                149.15    140.63     61.80      0.00
  201                 55.76    139.87     60.56      0.00
  203               4566.03    139.70     59.66      0.00
  204                  0.00    145.59     53.99      0.00
  205                 81.70    140.61     51.83      0.00
  206                  0.00    139.69     60.10      0.00
  207                 86.74    139.88     56.71      0.00
  208                  0.00    139.48     53.50      0.00
  209                  1.09    139.11     61.14      0.00
  211                 10.84    138.99     57.19      0.00
  213                 17.42    138.93     57.17      0.00
  215                115.24    138.76     57.09      0.00
  217                 30.27    138.74     57.52      0.00
  219                 51.65    138.73     58.38      0.00
  225                 28.50    138.74     56.65      0.00
  229                 80.22    138.84     55.61      0.00
  231                 20.60    138.84     57.99      0.00
  237                 19.51    138.93     54.13      0.00
  239                 55.76    138.93     54.57      0.00
  241                  0.00    138.93     54.57      0.00
  243                  5.43    138.93     54.13      0.00
  247                 87.97    138.93     52.40      0.00
  249                  0.00    138.93     52.40      0.00
  251                 30.20    138.94     47.21      0.00
  253                 68.15    139.03     44.64      0.00
  255                 50.49    139.08     48.56      0.00
  257                  0.00    152.26     58.61      0.00
  259                  0.00    151.83     54.95      0.00
  261                  0.00    150.28     65.11      0.00
  263                  0.00    150.11     65.04      0.00
  265                  0.00    147.75     64.02      0.00
  267                  0.00    146.31     54.29      0.00
  269                  0.00    146.51     63.48      0.00
  271                  0.00    145.78     60.57      0.00
  273                  0.00    140.61     57.46      0.00
  275                  0.00    139.88     56.28      0.00
  River           -13152.13    220.00      0.00      0.00  Reservoir
  Lake                 0.00    167.00      0.00      0.00  Reservoir
  1                  390.54    145.14      5.74      0.00  Tank
  2                 -295.87    139.68     10.04      0.00  Tank
  3                 2231.57    158.21     12.66      0.00  Tank
   
   
  Link Results at 0:15:00 hrs:
  ----------------------------------------------
                       Flow  Velocity  Headloss
  Link                  gpm       fps   /1000ft
  ----------------------------------------------
  20               -2231.57      0.09      0.00
  40                -390.54      0.02      0.00
  50                 295.87      0.01      0.00
  60               13152.13      9.33      8.92
  101                  0.00      0.00      0.00
  103                179.34      0.29      0.03
  105               -416.78      1.18      0.50
  107                 44.94      0.13      0.01
  109                 12.84      0.02      0.00
  111               -276.41      0.78      0.23
  112                515.61      1.46      0.74
  113                -33.64      0.10      0.00
  114                131.60      0.84      0.43
  115                -23.36      0.15      0.02
  116                 72.95      0.21      0.02
  117                630.93      1.79      1.08
  119               -735.71      2.09      1.44
  120               1146.56      3.25      3.27
  121               1029.95      2.92      2.68
  122                367.21      2.34      2.86
  123               9844.94      4.47      1.74
  125              13152.13      5.97      2.97
  129               2887.94      2.05      0.62
  131               2616.40      1.86      0.51
  133              -2231.57      2.28      0.93
  135                362.76      0.26      0.01
  137                 53.44      0.09      0.00
  145                309.33      1.97      2.08
  147                301.96      1.93      1.99
  149               -641.28      4.09      8.02
  151               -633.53      4.04      7.84
  153                351.63      1.00      0.37
  155                386.17      1.10      0.44
  159               -396.85      1.13      0.46
  161               -430.69      2.75      3.84
  163               -159.32      0.45      0.08
  169                214.54      1.37      1.06
  171                451.97      1.28      0.58
  173               8026.25      3.64      1.19
  175               7961.51      3.61      1.17
  177               7909.86      3.59      1.16
  179               7643.70      3.47      1.09
  180                  3.25      0.01      0.00
  181                  3.25      0.01      0.00
  183               7430.50      3.37      1.03
  185                -18.20      0.12      0.01
  186                360.69      2.30      2.76
  187               6818.64      3.09      0.88
  189               4761.57      2.16      0.45
  191              -2007.89      1.42      0.31
  193              -1816.20      1.29      0.26
  195                345.22      0.98      0.35
  197                272.51      0.77      0.23
  199               -118.03      0.33      0.05
  201               -390.54      1.11      0.44
  202                555.29      3.54      6.14
  203                226.66      1.45      1.17
  204                555.29      1.58      0.85
  205                360.69      1.02      0.38
  207                344.69      0.98      0.35
  209                154.67      0.99      0.58
  211                593.66      1.68      0.96
  213                206.02      0.58      0.14
  215                194.12      0.55      0.12
  217               -234.27      0.66      0.17
  219               -246.41      0.70      0.19
  221                246.41      1.57      1.36
  223                 74.12      0.21      0.02
  225                 95.42      0.27      0.03
  229               4761.57      3.38      1.34
  231               4511.16      3.20      1.21
  233               4566.03      3.24      1.44
  235                101.26      0.29      0.04
  237                461.27      1.31      0.60
  238                377.48      1.07      0.42
  239                  2.95      0.01      0.00
  240                377.48      1.07      0.42
  241                377.48      1.07      0.42
  243                376.39      0.60      0.10
  245                279.58      0.45      0.06
  247                225.66      0.36      0.04
  249                110.43      0.18      0.01
  251                 51.65      0.11      0.00
  257                 28.50      0.08      0.00
  261                 36.49      0.23      0.04
  263                 20.60      0.06      0.00
  269                 85.97      0.24      0.03
  271                 64.33      0.41      0.11
  273                  2.13      0.01      0.00
  275                -16.76      0.05      0.00
  277                  5.43      0.02      0.00
  281                -22.18      0.09      0.01
  283                -36.88      0.10      0.01
  285                 -0.16      0.00      0.00
  287               -110.00      0.45      0.10
  289                295.87      1.21      0.65
  291                 68.15      0.28      0.04
  293                 67.23      0.43      0.12
  295                -37.03      0.11      0.01
  297                483.82      3.09      4.76
  299                232.45      1.48      1.22
  301                232.45      1.48      1.22
  303                251.37      1.60      1.42
  305                147.11      0.42      0.07
  307                398.47      1.13      0.46
  309                198.17      1.26      0.91
  311                 -4.05      0.01      0.00
  313                440.13      1.25      0.55
  315              -2161.42      1.53      0.36
  317                113.58      0.72      0.33
  319                -12.32      0.03      0.00
  321               7628.67      3.46      1.08
  323               -110.64      0.31      0.04
  325                153.53      0.98      0.57
  329              13152.13      5.97      3.01
  330                  0.00      0.00      0.00
  333                 -0.00      0.00      0.00
  10                   0.00      0.00      0.00  Pump
  335              13152.13      0.00    -93.49  Pump
   
   
  Node Results at 0:20:00 hrs:
  --------------------------------------------------------
                     Demand      Head  Pressure  Chemical
  Node                  gpm        ft       psi      mg/L
  --------------------------------------------------------
  10                   0.00    145.94     -0.46      0.00
  15                 633.53    125.02     40.31      0.00
  20                   0.00    158.28     12.69      0.00
  35                1816.20    145.71     57.72      0.00
  40                   0.00    145.19      5.76      0.00
  50                   0.00    139.58     10.00      0.00
  60                   0.00    209.02     90.57      0.00
  601                  0.00    302.53    131.09      0.00
  61                   0.00    302.53    131.09      0.00
  101                237.44    145.94     45.04      0.00
  103                166.50    145.90     44.59      0.00
  105                169.21    147.21     51.44      0.00
  107                 68.30    147.20     54.25      0.00
  109                289.25    145.90     54.42      0.00
  111                177.42    146.37     59.09      0.00
  113                 25.01    146.38     62.56      0.00
  115                 65.13    147.23     57.73      0.00
  117                147.14    150.36     59.26      0.00
  119                220.16    157.76     67.49      0.00
  120                  0.00    155.38     67.32      0.00
  121                 52.04    161.24     70.73      0.00
  123                  0.00    165.69     67.03      0.00
  125                 57.00    160.67     64.85      0.00
  127                 22.08    159.01     44.63      0.00
  129                  0.00    159.00     46.80      0.00
  131                 53.44    158.98     66.29      0.00
  139                  7.36    153.27     52.98      0.00
  141                 12.31    149.19     62.91      0.00
  143                  7.75    137.96     61.73      0.00
  145                 34.54    150.48     64.77      0.00
  147                 10.69    151.43     57.60      0.00
  149                 33.84    151.84     58.86      0.00
  151                180.60    155.75     52.97      0.00
  153                 55.21    155.85     38.84      0.00
  157                 64.74    155.28     61.61      0.00
  159                 51.65    151.87     63.21      0.00
  161                 19.75    149.55     63.07      0.00
  163                 11.77    149.08     62.43      0.00
  164                  0.00    149.08     62.43      0.00
  166                  3.25    149.08     65.46      0.00
  167                 18.20    147.17     65.94      0.00
  169                  0.00    147.17     65.94      0.00
  171                 49.17    146.05     65.02      0.00
  173                  0.00    146.03     65.01      0.00
  177                 72.71    145.71     59.67      0.00
  179                  0.00    145.71     59.67      0.00
  181                  0.00    145.72     59.68      0.00
  183                  0.00    145.72     58.37      0.00
  184                  0.00    144.50     55.68      0.00
  185                 32.06    145.12     55.95      0.00
  187                  0.00    145.90     57.80      0.00
  189                134.90    146.19     61.61      0.00
  191                102.38    146.25     52.54      0.00
  193                 89.14    146.34     55.61      0.00
  195                  0.00    146.41     56.72      0.00
  197                 21.30    146.28     53.42      0.00
  199                149.15    140.65     61.81      0.00
  201                 55.76    139.88     60.57      0.00
  203               4566.03    139.71     59.67      0.00
  204                  0.00    145.63     54.00      0.00
  205                 81.70    140.62     51.83      0.00
  206                  0.00    139.69     60.10      0.00
  207                 86.74    139.89     56.72      0.00
  208                  0.00    139.47     53.50      0.00
  209                  1.09    139.08     61.13      0.00
  211                 10.84    138.95     57.18      0.00
  213                 17.42    138.89     57.15      0.00
  215                115.24    138.72     57.08      0.00
  217                 30.27    138.71     57.50      0.00
  219                 51.65    138.70     58.36      0.00
  225                 28.50    138.70     56.63      0.00
  229                 80.22    138.80     55.59      0.00
  231                 20.60    138.80     57.97      0.00
  237                 19.51    138.89     54.11      0.00
  239                 55.76    138.89     54.55      0.00
  241                  0.00    138.89     54.55      0.00
  243                  5.43    138.89     54.11      0.00
  247                 87.97    138.89     52.38      0.00
  249                  0.00    138.89     52.38      0.00
  251                 30.20    138.89     47.18      0.00
  253                 68.15    138.97     44.62      0.00
  255                 50.49    139.02     48.54      0.00
  257                  0.00    152.30     58.63      0.00
  259                  0.00    151.87     54.97      0.00
  261                  0.00    150.32     65.13      0.00
  263                  0.00    150.16     65.06      0.00
  265                  0.00    147.78     64.03      0.00
  267                  0.00    146.34     54.31      0.00
  269                  0.00    146.55     63.50      0.00
  271                  0.00    145.82     60.58      0.00
  273                  0.00    140.62     57.47      0.00
  275                  0.00    139.89     56.28      0.00
  River           -13150.36    220.00      0.00      0.00  Reservoir
  Lake                 0.00    167.00      0.00      0.00  Reservoir
  1                  386.53    145.19      5.76      0.00  Tank
  2                 -285.59    139.58     10.00      0.00  Tank
  3                 2223.51    158.28     12.69      0.00  Tank
   
   
  Link Results at 0:20:00 hrs:
  ----------------------------------------------
                       Flow  Velocity  Headloss
  Link                  gpm       fps   /1000ft
  ----------------------------------------------
  20               -2223.51      0.09      0.00
  40                -386.53      0.02      0.00
  50                 285.59      0.01      0.00
  60               13150.36      9.33      8.92
  101                  0.00      0.00      0.00
  103                179.54      0.29      0.03
  105               -416.98      1.18      0.50
  107                 45.07      0.13      0.01
  109                 13.04      0.02      0.00
  111               -276.21      0.78      0.23
  112                516.08      1.46      0.74
  113                -33.27      0.09      0.00
  114                131.74      0.84      0.43
  115                -23.23      0.15      0.02
  116                 73.46      0.21      0.02
  117                631.27      1.79      1.08
  119               -736.16      2.09      1.44
  120               1147.15      3.25      3.27
  121               1030.49      2.92      2.68
  122                367.42      2.35      2.86
  123               9850.75      4.47      1.74
  125              13150.36      5.97      2.97
  129               2880.15      2.04      0.61
  131               2608.51      1.85      0.51
  133              -2223.51      2.27      0.92
  135                362.92      0.26      0.01
  137                 53.44      0.09      0.00
  145                309.48      1.98      2.08
  147                302.12      1.93      1.99
  149               -641.28      4.09      8.02
  151               -633.53      4.04      7.84
  153                351.47      1.00      0.37
  155                386.01      1.10      0.43
  159               -396.70      1.13      0.46
  161               -430.54      2.75      3.84
  163               -159.43      0.45      0.08
  169                214.64      1.37      1.06
  171                451.71      1.28      0.58
  173               8031.73      3.65      1.19
  175               7967.00      3.62      1.17
  177               7915.35      3.59      1.16
  179               7649.09      3.47      1.09
  180                  3.25      0.01      0.00
  181                  3.25      0.01      0.00
  183               7435.90      3.38      1.03
  185                -18.20      0.12      0.01
  186                361.31      2.31      2.77
  187               6824.04      3.10      0.88
  189               4770.65      2.17      0.45
  191              -2004.21      1.42      0.31
  193              -1816.20      1.29      0.26
  195                341.64      0.97      0.35
  197                268.93      0.76      0.22
  199               -117.60      0.33      0.05
  201               -386.53      1.10      0.44
  202                556.49      3.55      6.17
  203                227.24      1.45      1.17
  204                556.49      1.58      0.86
  205                361.31      1.02      0.38
  207                344.85      0.98      0.35
  209                154.87      0.99      0.58
  211                593.66      1.68      0.96
  213                206.44      0.59      0.14
  215                194.59      0.55      0.12
  217               -234.41      0.66      0.17
  219               -246.51      0.70      0.19
  221                246.51      1.57      1.37
  223                 74.41      0.21      0.02
  225                 95.71      0.27      0.03
  229               4770.65      3.38      1.35
  231               4519.46      3.21      1.22
  233               4566.03      3.24      1.44
  235                102.04      0.29      0.04
  237                462.91      1.31      0.61
  238                387.76      1.10      0.44
  239                 11.59      0.03      0.00
  240                387.76      1.10      0.44
  241                387.76      1.10      0.44
  243                386.68      0.62      0.11
  245                281.07      0.45      0.06
  247                225.66      0.36      0.04
  249                110.43      0.18      0.01
  251                 51.65      0.11      0.00
  257                 28.50      0.08      0.00
  261                 37.98      0.24      0.04
  263                 20.60      0.06      0.00
  269                 94.77      0.27      0.03
  271                 62.85      0.40      0.11
  273                 12.41      0.04      0.00
  275                -12.91      0.04      0.00
  277                  5.43      0.02      0.00
  281                -18.33      0.07      0.00
  283                -30.44      0.09      0.00
  285                 -2.80      0.01      0.00
  287               -103.51      0.42      0.09
  289                285.59      1.17      0.60
  291                 68.15      0.28      0.04
  293                 63.44      0.40      0.11
  295                -33.24      0.09      0.00
  297                484.07      3.09      4.77
  299                232.58      1.48      1.23
  301                232.58      1.48      1.23
  303                251.50      1.61      1.42
  305                147.19      0.42      0.07
  307                398.69      1.13      0.46
  309                198.17      1.26      0.91
  311                 -3.58      0.01      0.00
  313                440.03      1.25      0.55
  315              -2157.84      1.53      0.36
  317                113.92      0.73      0.33
  319                -11.88      0.03      0.00
  321               7634.06      3.46      1.08
  323               -102.33      0.29      0.04
  325                153.63      0.98      0.57
  329              13150.36      5.97      3.01
  330                  0.00      0.00      0.00
  333                 -0.00      0.00      0.00
  10                   0.00      0.00      0.00  Pump
  335              13150.36      0.00    -93.51  Pump
   
   
  Node Results at 0:25:00 hrs:
  --------------------------------------------------------
                     Demand      Head  Pressure  Chemical
  Node                  gpm        ft       psi      mg/L
  --------------------------------------------------------
  10                   0.00    145.97     -0.44      0.00
  15                 633.53    125.08     40.33      0.00
  20                   0.00    158.35     12.72      0.00
  35                1816.20    145.75     57.74      0.00
  40                   0.00    145.23      5.78      0.00
  50                   0.00    139.48      9.96      0.00
  60                   0.00    209.03     90.57      0.00
  601                  0.00    302.55    131.09      0.00
  61                   0.00    302.55    131.09      0.00
  101                237.44    145.97     45.05      0.00
  103                166.50    145.94     44.60      0.00
  105                169.21    147.25     51.45      0.00
  107                 68.30    147.24     54.27      0.00
  109                289.25    145.94     54.44      0.00
  111                177.42    146.41     59.10      0.00
  113                 25.01    146.41     62.57      0.00
  115                 65.13    147.27     57.75      0.00
  117                147.14    150.41     59.28      0.00
  119                220.16    157.81     67.51      0.00
  120                  0.00    155.42     67.34      0.00
  121                 52.04    161.29     70.75      0.00
  123                  0.00    165.74     67.05      0.00
  125                 57.00    160.72     64.88      0.00
  127                 22.08    159.08     44.66      0.00
  129                  0.00    159.06     46.82      0.00
  131                 53.44    159.05     66.31      0.00
  139                  7.36    153.34     53.01      0.00
  141                 12.31    149.25     62.94      0.00
  143                  7.75    138.02     61.75      0.00
  145                 34.54    150.53     64.79      0.00
  147                 10.69    151.49     57.62      0.00
  149                 33.84    151.89     58.88      0.00
  151                180.60    155.80     52.99      0.00
  153                 55.21    155.90     38.87      0.00
  157                 64.74    155.33     61.63      0.00
  159                 51.65    151.91     63.22      0.00
  161                 19.75    149.59     63.08      0.00
  163                 11.77    149.12     62.45      0.00
  164                  0.00    149.12     62.45      0.00
  166                  3.25    149.12     65.48      0.00
  167                 18.20    147.21     65.95      0.00
  169                  0.00    147.21     65.95      0.00
  171                 49.17    146.09     65.03      0.00
  173                  0.00    146.07     65.02      0.00
  177                 72.71    145.75     59.69      0.00
  179                  0.00    145.74     59.68      0.00
  181                  0.00    145.76     59.69      0.00
  183                  0.00    145.75     58.39      0.00
  184                  0.00    144.53     55.69      0.00
  185                 32.06    145.15     55.96      0.00
  187                  0.00    145.94     57.82      0.00
  189                134.90    146.23     61.63      0.00
  191                102.38    146.29     52.55      0.00
  193                 89.14    146.38     55.63      0.00
  195                  0.00    146.45     56.74      0.00
  197                 21.30    146.31     53.43      0.00
  199                149.15    140.67     61.82      0.00
  201                 55.76    139.90     60.57      0.00
[...]
  219                 67.76    138.01     58.07      0.00
  225                 37.39    138.02     56.34      0.00
  229                105.26    138.17     55.32     12.89
  231                 27.03    138.17     57.70      0.00
  237                 25.60    138.31     53.86     12.10
  239                 73.16    138.31     54.29      2.63
  241                  0.00    138.31     54.29      0.00
  243                  7.12    138.31     53.86      0.00
  247                115.42    138.31     52.13      0.00
  249                  0.00    138.31     52.13      0.00
  251                 39.62    138.32     46.93      0.00
  253                 89.41    138.42     44.38      0.00
  255                 66.24    138.50     48.31      0.00
  257                  0.00    152.20     58.58      0.00
  259                  0.00    151.73     54.91      0.00
  261                  0.00    150.03     65.01      0.00
  263                  0.00    149.85     64.93      0.00
  265                  0.00    148.63     64.40     20.00
  267                  0.00    146.84     54.53     19.67
  269                  0.00    147.35     63.85     20.00
  271                  0.00    146.90     61.05     20.00
  273                  0.00    140.92     57.59     20.00
  275                  0.00    140.14     56.39     20.00
  River           -13173.13    220.00      0.00      0.00  Reservoir
  Lake                 0.00    167.00      0.00      0.00  Reservoir
  1                 -590.59    148.00      6.98      0.00  Tank
  2                 -362.15    139.37      9.91      0.00  Tank
  3                  592.53    161.21     13.96      0.00  Tank
   
   
  Link Results at 23:55:00 hrs:
  ----------------------------------------------
                       Flow  Velocity  Headloss
  Link                  gpm       fps   /1000ft
  ----------------------------------------------
  20                -592.53      0.02      0.00
  40                 590.59      0.02      0.00
  50                 362.15      0.02      0.00
  60               13173.13      9.34      8.95
  101                  0.00      0.00      0.00
  103                137.12      0.22      0.02
  105               -448.64      1.27      0.57
  107                 -2.31      0.01      0.00
  109                -81.32      0.13      0.01
  111               -460.82      1.31      0.60
  112                452.86      1.28      0.58
  113               -175.81      0.50      0.10
  114                 99.38      0.63      0.25
  115                -91.92      0.59      0.22
  116               -109.25      0.31      0.04
  117                668.34      1.90      1.20
  119               -729.60      2.07      1.41
  120               1217.21      3.45      3.65
  121               1082.32      3.07      2.93
  122                373.77      2.39      2.95
  123               9715.67      4.41      1.69
  125              11349.94      5.15      2.26
  129               1192.23      0.85      0.12
  131                917.35      0.65      0.07
  133               -592.53      0.61      0.08
  135                295.86      0.21      0.01
  137                 70.11      0.11      0.00
  145                225.75      1.44      1.16
  147                216.09      1.38      1.07
  149               -299.90      1.91      1.96
  151               -289.73      1.85      1.84
  153                 99.96      0.28      0.04
  155                145.28      0.41      0.07
  159               -159.30      0.45      0.08
  161               -203.69      1.30      0.96
  163               -127.66      0.36      0.06
  169                200.10      1.28      0.93
  171                312.98      0.89      0.29
  173               7896.62      3.58      1.15
  175               7811.69      3.55      1.13
  177               7743.92      3.51      1.11
  179               7449.84      3.38      1.04
  180                  4.26      0.01      0.00
  181                  4.26      0.01      0.00
  183               7207.17      3.27      0.97
  185                -23.88      0.15      0.02
  186                307.36      1.96      2.05
  187               6544.93      2.97      0.82
  189               5068.83      2.30      0.51
  191              -1411.59      1.00      0.16
  193              -1785.40      1.27      0.25
  195               -256.27      0.73      0.20
  197               -351.67      1.00      0.37
  199                238.92      0.68      0.18
  201                590.59      1.68      0.96
  202                578.42      3.69      6.63
  203                313.13      2.00      2.13
  204                578.42      1.64      0.92
  205                307.36      0.87      0.29
  207                 74.21      0.21      0.02
  209                214.85      1.37      1.06
  211                638.35      1.81      1.10
  213                 92.51      0.26      0.03
  215                -54.77      0.16      0.01
  217               -319.71      0.91      0.31
  219               -268.17      0.76      0.22
  221                268.17      1.71      1.60
  223                -92.88      0.26      0.03
  225                -64.94      0.18      0.02
  229               5068.83      3.59      1.51
  231               4721.91      3.35      1.32
  233               4636.13      3.29      1.48
  235                151.24      0.43      0.08
  237                504.60      1.43      0.71
  238                521.28      1.48      0.76
  239                130.48      0.37      0.06
  240                521.28      1.48      0.76
  241                521.28      1.48      0.76
  243                519.86      0.83      0.19
  245                370.67      0.59      0.10
  247                296.07      0.47      0.07
  249                144.88      0.23      0.02
  251                 67.76      0.14      0.01
  257                 37.39      0.11      0.01
  261                 51.74      0.33      0.08
  263                 27.03      0.08      0.00
  269                134.97      0.38      0.06
  271                 80.54      0.51      0.17
  273                 28.82      0.08      0.00
  275                -12.23      0.03      0.00
  277                  7.12      0.02      0.00
  281                -19.35      0.08      0.00
  283                -32.10      0.09      0.00
  285                 -6.88      0.02      0.00
  287               -127.90      0.52      0.14
  289                362.15      1.48      0.94
  291                 89.41      0.37      0.07
  293                 78.60      0.50      0.16
  295                -38.98      0.11      0.01
  297                508.66      3.25      5.22
  299                244.51      1.56      1.35
  301                244.51      1.56      1.35
  303                264.16      1.69      1.55
  305                159.67      0.45      0.08
  307                423.83      1.20      0.52
  309                222.96      1.42      1.13
  311               -277.73      0.79      0.24
  313                520.81      1.48      0.76
  315              -1529.13      1.08      0.19
  317                117.87      0.75      0.35
  319                 33.37      0.09      0.00
  321               7430.13      3.37      1.03
  323                 12.62      0.04      0.00
  325                117.54      0.75      0.35
  329              13173.13      5.98      3.02
  330                  0.00      0.00      0.00
  333                 -0.00      0.00      0.00
  10                   0.00      0.00      0.00  Pump
  335              13173.13      0.00    -93.31  Pump
   
   
  Node Results at 24:00:00 hrs:
  --------------------------------------------------------
                     Demand      Head  Pressure  Chemical
  Node                  gpm        ft       psi      mg/L
  --------------------------------------------------------
  10                   0.00    148.40      0.61      0.00
  15                 633.53    127.72     41.48      0.00
  20                   0.00    161.23     13.97      0.00
  35                1816.20    148.17     58.79     17.05
  40                   0.00    147.94      6.95      0.00
  50                   0.00    139.24      9.85      0.00
  60                   0.00    209.16     90.63      0.00
  601                  0.00    303.43    131.48      0.00
  61                   0.00    303.43    131.48      0.00
  101                237.44    148.40     46.10      0.00
  103                166.50    148.37     45.66      0.00
  105                169.21    149.69     52.51      0.00
  107                 68.30    149.68     55.32      0.00
  109                289.25    148.37     55.49      0.00
  111                177.42    148.83     60.15      0.00
  113                 25.01    148.83     63.62      0.00
  115                 65.13    149.71     58.80      0.00
  117                147.14    152.88     60.35      0.00
  119                220.16    160.35     68.61      0.00
  120                  0.00    157.94     68.44      0.00
  121                 52.04    163.87     71.87      0.00
  123                  0.00    168.26     68.14      0.00
  125                 57.00    163.35     66.01      0.00
  127                 22.08    161.87     45.87      0.00
  129                  0.00    161.85     48.03      0.00
  131                 53.44    161.84     67.52      0.00
  139                  7.36    156.04     54.18      0.00
  141                 12.31    151.89     64.08      0.00
  143                  7.75    140.66     62.90      0.00
  145                 34.54    153.16     65.93      0.00
  147                 10.69    154.10     58.76      0.00
  149                 33.84    154.50     60.01      0.00
  151                180.60    158.37     54.11      0.00
  153                 55.21    158.47     39.98      0.00
  157                 64.74    157.84     62.71      0.00
  159                 51.65    154.38     64.29     20.00
  161                 19.75    152.03     64.14     20.00
  163                 11.77    151.55     63.50     20.00
  164                  0.00    151.55     63.50     20.00
  166                  3.25    151.55     66.53      0.00
  167                 18.20    149.61     66.99     20.00
  169                  0.00    149.61     66.99     20.00
  171                 49.17    148.48     66.07     20.00
  173                  0.00    148.45     66.06     20.00
  177                 72.71    148.17     60.74      0.00
  179                  0.00    148.17     60.74      0.00
  181                  0.00    148.18     60.74     17.13
  183                  0.00    148.18     59.44      4.71
  184                  0.00    146.84     56.69     10.76
  185                 32.06    147.51     56.98     10.83
  187                  0.00    148.34     58.86     17.01
  189                134.90    148.64     62.67     20.00
  191                102.38    148.71     53.60     20.00
  193                 89.14    148.80     56.67     20.00
  195                  0.00    148.87     57.79     20.00
  197                 21.30    148.73     54.48      0.00
  199                149.15    142.69     62.69     20.00
  201                 55.76    141.88     61.43     20.00
  203               4566.03    141.70     60.53     20.00
  204                  0.00    148.05     55.05     17.04
  205                 81.70    142.64     52.71     10.51
  206                  0.00    141.32     60.80     16.12
  207                 86.74    141.75     57.52     16.01
  208                  0.00    140.84     54.09     16.11
  209                  1.09    139.99     61.53     15.86
  211                 10.84    139.71     57.50     14.47
  213                 17.42    139.63     57.47     12.58
  215                115.24    139.46     57.40     10.28
  217                 30.27    139.45     57.82      0.00
  219                 51.65    139.44     58.68      0.00
  225                 28.50    139.44     56.95      0.00
  229                 80.22    139.27     55.80     12.83
  231                 20.60    139.27     58.18      0.00
  237                 19.51    139.29     54.29     11.94
  239                 55.76    139.21     54.69      3.08
  241                  0.00    139.21     54.69      0.00
  243                  5.43    139.21     54.25      0.00
  247                 87.97    139.20     52.51      0.00
  249                  0.00    139.20     52.51      0.00
  251                 30.20    139.19     47.31      0.00
  253                 68.15    139.14     44.69      0.00
  255                 50.49    139.19     48.61      0.00
  257                  0.00    154.83     59.72      0.00
  259                  0.00    154.40     56.07      0.00
  261                  0.00    152.83     66.22      0.00
  263                  0.00    152.67     66.15      0.00
  265                  0.00    150.23     65.10     20.00
  267                  0.00    148.80     55.37     19.68
  269                  0.00    149.00     64.56     20.00
  271                  0.00    148.26     61.64     20.00
  273                  0.00    142.65     58.34     20.00
  275                  0.00    141.87     57.14     20.00
  River           -13063.34    220.00      0.00      0.00  Reservoir
  Lake                 0.00    167.00      0.00      0.00  Reservoir
  1                  252.07    147.94      6.95      0.00  Tank
  2                  -83.44    139.24      9.85      0.00  Tank
  3                 2068.81    161.23     13.97      0.00  Tank
   
   
  Link Results at 24:00:00 hrs:
  ----------------------------------------------
                       Flow  Velocity  Headloss
  Link                  gpm       fps   /1000ft
  ----------------------------------------------
  20               -2068.81      0.09      0.00
  40                -252.07      0.01      0.00
  50                  83.44      0.00      0.00
  60               13063.34      9.26      8.81
  101                  0.00      0.00      0.00
  103                181.64      0.29      0.03
  105               -419.08      1.19      0.51
  107                 46.52      0.13      0.01
  109                 15.14      0.02      0.00
  111               -274.11      0.78      0.23
  112                520.90      1.48      0.76
  113                -29.56      0.08      0.00
  114                133.11      0.85      0.44
  115                -21.78      0.14      0.02
  116                 78.53      0.22      0.02
  117                634.82      1.80      1.09
  119               -740.91      2.10      1.45
  120               1153.29      3.27      3.30
  121               1036.14      2.94      2.71
  122                369.58      2.36      2.89
  123               9912.22      4.50      1.76
  125              13063.34      5.93      2.93
  129               2729.50      1.94      0.56
  131               2456.43      1.74      0.46
  133              -2068.81      2.11      0.81
  135                365.55      0.26      0.01
  137                 53.44      0.09      0.00
  145                312.11      1.99      2.11
  147                304.75      1.95      2.02
  149               -641.28      4.09      8.02
  151               -633.53      4.04      7.84
  153                348.84      0.99      0.36
  155                383.38      1.09      0.43
  159               -394.07      1.12      0.45
  161               -427.91      2.73      3.79
  163               -160.86      0.46      0.09
  169                216.07      1.38      1.07
  171                447.65      1.27      0.57
  173               8091.12      3.67      1.21
  175               8026.38      3.64      1.19
  177               7974.73      3.62      1.18
  179               7707.67      3.50      1.10
  180                  3.25      0.01      0.00
  181                  3.25      0.01      0.00
  183               7494.89      3.40      1.05
  185                -18.20      0.12      0.01
  186                371.63      2.37      2.92
  187               6886.07      3.13      0.90
  189               4948.54      2.25      0.49
  191              -1888.36      1.34      0.28
  193              -1816.20      1.29      0.26
  195                225.77      0.64      0.16
  197                153.06      0.43      0.08
  199                -99.01      0.28      0.03
  201               -252.07      0.72      0.20
  202                580.76      3.71      6.68
  203                241.18      1.54      1.31
  204                580.76      1.65      0.93
  205                371.63      1.05      0.41
  207                340.20      0.97      0.34
  209                159.41      1.02      0.61
  211                590.62      1.68      0.96
  213                212.22      0.60      0.14
  215                197.50      0.56      0.13
  217               -236.96      0.67      0.18
  219               -247.31      0.70      0.19
  221                247.31      1.58      1.37
  223                 77.64      0.22      0.02
  225                 98.94      0.28      0.03
  229               4948.54      3.51      1.44
  231               4665.09      3.31      1.29
  233               4566.03      3.24      1.44
  235                134.30      0.38      0.06
  237                515.94      1.46      0.74
  238                589.91      1.67      0.95
  239                160.71      0.46      0.09
  240                589.91      1.67      0.95
  241                589.91      1.67      0.95
  243                588.83      0.94      0.23
  245                321.59      0.51      0.08
  247                225.66      0.36      0.04
  249                110.43      0.18      0.01
  251                 51.65      0.11      0.00
  257                 28.50      0.08      0.00
  261                 78.50      0.50      0.16
  263                 20.60      0.06      0.00
  269                256.40      0.73      0.20
  271                 22.32      0.14      0.02
  273                214.56      0.61      0.15
  275                 62.85      0.18      0.02
  277                  5.43      0.02      0.00
  281                 57.42      0.23      0.03
  283                 95.95      0.27      0.03
  285                -57.94      0.16      0.01
  287                 27.39      0.11      0.01
  289                 83.44      0.34      0.06
  291                 68.15      0.28      0.04
  293                 -7.81      0.05      0.00
  295                 38.01      0.11      0.01
  297                486.73      3.11      4.81
  299                233.85      1.49      1.24
  301                233.85      1.49      1.24
  303                252.88      1.61      1.43
  305                148.09      0.42      0.07
  307                400.96      1.14      0.47
  309                197.75      1.26      0.91
  311                 -0.25      0.00      0.00
  313                437.01      1.24      0.55
  315              -2041.97      1.45      0.32
  317                117.42      0.75      0.35
  319                 16.88      0.05      0.00
  321               7692.64      3.49      1.10
  323                 43.29      0.12      0.01
  325                153.61      0.98      0.57
  329              13063.34      5.93      2.97
  330                  0.00      0.00      0.00
  333                 -0.00      0.00      0.00
  10                   0.00      0.00      0.00  Pump
  335              13063.34      0.00    -94.28  Pump
   
  Analysis ended Wed May 06 18:06:33 2020
