  Page 1                                    Wed May 06 18:06:38 2020

  ******************************************************************
  *                           E P A N E T                          *
  *                   Hydraulic and Water Quality                  *
  *                   Analysis for Pipe Networks                   *
  *                         Version 2.00.12                        *
  ******************************************************************
  
  Analysis begun Wed May 06 18:06:38 2020

   
  Hydraulic Status:
  -----------------------------------------------------------------------
     0:00:00: Balanced after 6 trials
     0:00:00: Reservoir River is emptying
     0:00:00: Reservoir Lake is closed
     0:00:00: Tank 1 is emptying at 13.10 ft
     0:00:00: Tank 2 is emptying at 23.50 ft
     0:00:00: Tank 3 is filling at 29.00 ft
   
     0:05:00: Balanced after 2 trials
   
     0:10:00: Balanced after 2 trials
   
     0:15:00: Balanced after 2 trials
   
     0:20:00: Balanced after 2 trials
   
     0:25:00: Balanced after 2 trials
   
     0:30:00: Balanced after 2 trials
   
     0:35:00: Balanced after 2 trials
   
     0:40:00: Balanced after 2 trials
   
     0:45:00: Balanced after 2 trials
   
     0:50:00: Balanced after 2 trials
   
     0:55:00: Balanced after 2 trials
   
     1:00:00: Pump 10 changed by timer control
     1:00:00: Balanced after 7 trials
     1:00:00: Reservoir Lake is emptying
     1:00:00: Tank 1 is filling at 13.08 ft
     1:00:00: Pump 10 changed from closed to open
   
     1:05:00: Balanced after 1 trials
   
     1:10:00: Balanced after 1 trials
   
     1:15:00: Balanced after 1 trials
   
     1:20:00: Balanced after 1 trials
   
     1:25:00: Balanced after 1 trials
   
     1:30:00: Balanced after 1 trials
   
     1:35:00: Balanced after 1 trials
   
     1:40:00: Balanced after 1 trials
   
     1:45:00: Balanced after 1 trials
   
     1:50:00: Balanced after 1 trials
   
     1:55:00: Balanced after 1 trials
   
     2:00:00: Balanced after 3 trials
     2:00:00: Tank 2 is filling at 21.52 ft
   
     2:05:00: Balanced after 1 trials
   
     2:10:00: Balanced after 1 trials
   
     2:15:00: Balanced after 1 trials
   
     2:20:00: Balanced after 1 trials
   
     2:25:00: Balanced after 1 trials
   
     2:30:00: Balanced after 1 trials
   
     2:35:00: Balanced after 1 trials
   
     2:40:00: Balanced after 1 trials
   
     2:45:00: Balanced after 1 trials
   
     2:50:00: Balanced after 1 trials
   
     2:55:00: Balanced after 1 trials
   
     3:00:00: Balanced after 2 trials
   
     3:05:00: Balanced after 1 trials
   
     3:10:00: Balanced after 1 trials
   
     3:15:00: Balanced after 1 trials
   
     3:20:00: Balanced after 1 trials
   
     3:25:00: Balanced after 1 trials
   
     3:30:00: Balanced after 1 trials
   
     3:35:00: Balanced after 1 trials
   
     3:40:00: Balanced after 1 trials
   
     3:45:00: Balanced after 1 trials
   
     3:50:00: Balanced after 1 trials
   
     3:55:00: Balanced after 1 trials
   
     4:00:00: Balanced after 3 trials
   
     4:05:00: Balanced after 1 trials
   
     4:07:47: Pump 335 changed by Tank 1 control
     4:07:47: Pipe 330 changed by Tank 1 control
     4:07:47: Balanced after 4 trials
     4:07:47: Pipe 330 changed from closed to open
     4:07:47: Pump 335 changed from open to closed
   
     4:10:00: Balanced after 1 trials
   
     4:15:00: Balanced after 2 trials
   
     4:20:00: Balanced after 2 trials
   
     4:25:00: Balanced after 2 trials
   
     4:30:00: Balanced after 2 trials
   
     4:35:00: Balanced after 2 trials
   
     4:40:00: Balanced after 2 trials
   
     4:45:00: Balanced after 2 trials
   
     4:50:00: Balanced after 2 trials
   
     4:55:00: Balanced after 2 trials
   
     5:00:00: Balanced after 3 trials
   
     5:05:00: Balanced after 2 trials
   
     5:10:00: Balanced after 2 trials
   
     5:15:00: Balanced after 2 trials
   
     5:20:00: Balanced after 2 trials
   
     5:25:00: Balanced after 2 trials
   
     5:30:00: Balanced after 2 trials
   
     5:35:00: Balanced after 2 trials
   
     5:40:00: Balanced after 2 trials
   
     5:45:00: Balanced after 2 trials
   
     5:50:00: Balanced after 2 trials
   
     5:55:00: Balanced after 2 trials
   
     6:00:00: Balanced after 3 trials
   
     6:05:00: Balanced after 1 trials
   
     6:10:00: Balanced after 1 trials
   
     6:15:00: Balanced after 1 trials
   
     6:20:00: Balanced after 1 trials
   
     6:25:00: Balanced after 1 trials
   
     6:30:00: Balanced after 1 trials
   
     6:35:00: Balanced after 1 trials
   
     6:40:00: Balanced after 1 trials
   
     6:45:00: Balanced after 1 trials
   
     6:50:00: Balanced after 1 trials
   
     6:55:00: Balanced after 1 trials
   
     7:00:00: Balanced after 3 trials
   
     7:05:00: Balanced after 1 trials
   
     7:10:00: Balanced after 1 trials
   
     7:15:00: Balanced after 1 trials
   
     7:20:00: Balanced after 1 trials
   
     7:25:00: Balanced after 1 trials
   
     7:30:00: Balanced after 1 trials
   
     7:35:00: Balanced after 1 trials
   
     7:40:00: Balanced after 1 trials
   
     7:45:00: Balanced after 1 trials
   
     7:50:00: Balanced after 1 trials
   
     7:55:00: Balanced after 1 trials
   
     8:00:00: Balanced after 3 trials
   
     8:05:00: Balanced after 1 trials
   
     8:10:00: Balanced after 1 trials
   
     8:15:00: Balanced after 1 trials
   
     8:20:00: Balanced after 1 trials
   
     8:25:00: Balanced after 1 trials
   
     8:30:00: Balanced after 1 trials
   
     8:31:04: Balanced after 4 trials
     8:31:04: Tank 3 is closed at 35.50 ft
     8:31:04: Pipe 20 changed from open to temporarily closed
   
     8:35:00: Balanced after 1 trials
   
     8:40:00: Balanced after 1 trials
   
     8:45:00: Balanced after 1 trials
   
     8:50:00: Balanced after 1 trials
   
     8:55:00: Balanced after 1 trials
   
     9:00:00: Balanced after 5 trials
     9:00:00: Tank 3 is emptying at 35.50 ft
     9:00:00: Pipe 20 changed from temporarily closed to open
   
     9:05:00: Balanced after 2 trials
   
     9:10:00: Balanced after 2 trials
   
     9:15:00: Balanced after 2 trials
   
     9:20:00: Balanced after 1 trials
   
     9:25:00: Balanced after 1 trials
   
     9:30:00: Balanced after 1 trials
   
     9:35:00: Balanced after 1 trials
   
     9:40:00: Balanced after 1 trials
   
     9:45:00: Balanced after 1 trials
   
     9:50:00: Balanced after 1 trials
   
     9:55:00: Balanced after 1 trials
   
    10:00:00: Balanced after 3 trials
    10:00:00: Tank 1 is emptying at 22.94 ft
   
    10:05:00: Balanced after 1 trials
   
    10:10:00: Balanced after 1 trials
   
    10:15:00: Balanced after 1 trials
   
    10:20:00: Balanced after 1 trials
   
    10:25:00: Balanced after 1 trials
   
    10:30:00: Balanced after 1 trials
   
    10:35:00: Balanced after 1 trials
   
    10:40:00: Balanced after 1 trials
   
    10:45:00: Balanced after 1 trials
   
    10:50:00: Balanced after 1 trials
   
    10:55:00: Balanced after 1 trials
   
    11:00:00: Balanced after 3 trials
    11:00:00: Tank 2 is emptying at 28.92 ft
   
    11:05:00: Balanced after 1 trials
   
    11:10:00: Balanced after 1 trials
   
    11:15:00: Balanced after 1 trials
   
    11:20:00: Balanced after 1 trials
   
    11:25:00: Balanced after 1 trials
   
    11:30:00: Balanced after 1 trials
   
    11:35:00: Balanced after 1 trials
   
    11:40:00: Balanced after 1 trials
   
    11:45:00: Balanced after 1 trials
   
    11:50:00: Balanced after 1 trials
   
    11:55:00: Balanced after 1 trials
   
    12:00:00: Balanced after 4 trials
    12:00:00: Tank 1 is filling at 22.35 ft
    12:00:00: Tank 2 is filling at 28.54 ft
   
    12:05:00: Balanced after 2 trials
   
    12:10:00: Balanced after 2 trials
   
    12:15:00: Balanced after 2 trials
   
    12:20:00: Balanced after 2 trials
   
    12:25:00: Balanced after 2 trials
   
    12:30:00: Balanced after 2 trials
   
    12:35:00: Balanced after 2 trials
   
    12:40:00: Balanced after 2 trials
   
    12:45:00: Balanced after 2 trials
   
    12:50:00: Balanced after 2 trials
   
    12:55:00: Balanced after 2 trials
   
    13:00:00: Balanced after 3 trials
    13:00:00: Tank 1 is emptying at 22.77 ft
   
    13:05:00: Balanced after 2 trials
   
    13:10:00: Balanced after 2 trials
   
    13:15:00: Balanced after 1 trials
   
    13:20:00: Balanced after 1 trials
   
    13:25:00: Balanced after 1 trials
   
    13:30:00: Balanced after 1 trials
   
    13:35:00: Balanced after 1 trials
   
    13:40:00: Balanced after 1 trials
   
    13:45:00: Balanced after 1 trials
   
    13:50:00: Balanced after 1 trials
   
    13:55:00: Balanced after 1 trials
   
    14:00:00: Balanced after 3 trials
    14:00:00: Tank 1 is filling at 22.71 ft
   
    14:05:00: Balanced after 2 trials
   
    14:10:00: Balanced after 2 trials
   
    14:15:00: Balanced after 2 trials
   
    14:20:00: Balanced after 2 trials
   
    14:25:00: Balanced after 2 trials
   
    14:30:00: Balanced after 2 trials
   
    14:35:00: Balanced after 2 trials
   
    14:40:00: Balanced after 2 trials
   
    14:45:00: Balanced after 2 trials
   
    14:50:00: Balanced after 2 trials
   
    14:55:00: Balanced after 2 trials
    14:55:00: Tank 3 is filling at 34.26 ft
   
    15:00:00: Pump 10 changed by timer control
    15:00:00: Balanced after 5 trials
    15:00:00: Reservoir Lake is closed
    15:00:00: Tank 1 is emptying at 23.13 ft
    15:00:00: Tank 3 is emptying at 34.26 ft
    15:00:00: Pump 10 changed from open to closed
   
    15:05:00: Balanced after 2 trials
   
    15:10:00: Balanced after 2 trials
   
    15:15:00: Balanced after 2 trials
   
    15:20:00: Balanced after 2 trials
   
    15:25:00: Balanced after 2 trials
   
    15:30:00: Balanced after 2 trials
   
    15:35:00: Balanced after 2 trials
   
    15:40:00: Balanced after 2 trials
   
    15:45:00: Balanced after 2 trials
   
    15:50:00: Balanced after 2 trials
   
    15:55:00: Balanced after 2 trials
   
    16:00:00: Balanced after 4 trials
   
    16:05:00: Balanced after 2 trials
   
    16:10:00: Balanced after 2 trials
   
    16:15:00: Balanced after 2 trials
   
    16:20:00: Balanced after 2 trials
   
    16:25:00: Balanced after 2 trials
   
    16:30:00: Balanced after 2 trials
   
    16:35:00: Balanced after 2 trials
   
    16:40:00: Balanced after 2 trials
   
    16:45:00: Balanced after 2 trials
   
    16:50:00: Balanced after 2 trials
   
    16:55:00: Balanced after 2 trials
   
    17:00:00: Balanced after 3 trials
    17:00:00: Tank 2 is emptying at 30.28 ft
   
    17:05:00: Balanced after 1 trials
   
    17:10:00: Balanced after 1 trials
   
    17:15:00: Balanced after 1 trials
   
    17:20:00: Balanced after 1 trials
   
    17:25:00: Balanced after 1 trials
   
    17:30:00: Balanced after 1 trials
   
    17:35:00: Balanced after 1 trials
   
    17:40:00: Balanced after 1 trials
   
    17:45:00: Balanced after 1 trials
   
    17:50:00: Balanced after 1 trials
   
    17:55:00: Balanced after 1 trials
   
    18:00:00: Balanced after 3 trials
   
    18:05:00: Balanced after 2 trials
   
    18:10:00: Balanced after 2 trials
   
    18:15:00: Balanced after 2 trials
   
    18:20:00: Balanced after 2 trials
   
    18:25:00: Balanced after 2 trials
   
    18:30:00: Balanced after 2 trials
   
    18:35:00: Balanced after 2 trials
   
    18:40:00: Balanced after 2 trials
   
    18:45:00: Balanced after 2 trials
   
    18:50:00: Balanced after 1 trials
   
    18:55:00: Balanced after 1 trials
   
    19:00:00: Balanced after 2 trials
   
    19:05:00: Balanced after 1 trials
   
    19:10:00: Balanced after 1 trials
   
    19:15:00: Balanced after 1 trials
   
    19:20:00: Balanced after 1 trials
   
    19:25:00: Balanced after 1 trials
   
    19:30:00: Balanced after 1 trials
   
    19:35:00: Balanced after 1 trials
   
    19:40:00: Balanced after 1 trials
   
    19:45:00: Balanced after 1 trials
   
    19:50:00: Balanced after 1 trials
   
    19:55:00: Balanced after 1 trials
   
    20:00:00: Balanced after 3 trials
    20:00:00: Tank 2 is filling at 27.14 ft
   
    20:05:00: Balanced after 2 trials
   
    20:10:00: Balanced after 2 trials
   
    20:15:00: Balanced after 2 trials
   
    20:20:00: Balanced after 2 trials
   
    20:25:00: Balanced after 2 trials
   
    20:30:00: Balanced after 2 trials
   
    20:35:00: Balanced after 2 trials
   
    20:40:00: Balanced after 1 trials
   
    20:45:00: Balanced after 1 trials
   
    20:50:00: Balanced after 1 trials
   
    20:55:00: Balanced after 1 trials
    20:55:00: Tank 2 is closed at 27.23 ft
   
    21:00:00: Balanced after 3 trials
    21:00:00: Tank 2 is emptying at 27.23 ft
   
    21:05:00: Balanced after 2 trials
   
    21:10:00: Balanced after 2 trials
   
    21:15:00: Balanced after 2 trials
   
    21:20:00: Balanced after 2 trials
   
    21:25:00: Balanced after 2 trials
   
    21:30:00: Balanced after 2 trials
   
    21:35:00: Balanced after 2 trials
   
    21:40:00: Balanced after 2 trials
   
    21:45:00: Balanced after 2 trials
   
    21:49:35: Pump 335 changed by Tank 1 control
    21:49:35: Pipe 330 changed by Tank 1 control
    21:49:35: Balanced after 5 trials
    21:49:35: Tank 3 is filling at 29.93 ft
    21:49:35: Pipe 330 changed from open to closed
    21:49:35: Pump 335 changed from closed to open
   
    21:50:00: Balanced after 1 trials
   
    21:55:00: Balanced after 2 trials
   
    22:00:00: Balanced after 4 trials
    22:00:00: Tank 1 is filling at 17.03 ft
   
    22:05:00: Balanced after 2 trials
   
    22:10:00: Balanced after 2 trials
   
    22:15:00: Balanced after 2 trials
   
    22:20:00: Balanced after 2 trials
   
    22:25:00: Balanced after 2 trials
   
    22:30:00: Balanced after 2 trials
   
    22:35:00: Balanced after 2 trials
   
    22:40:00: Balanced after 2 trials
   
    22:45:00: Balanced after 2 trials
   
    22:50:00: Balanced after 2 trials
   
    22:55:00: Balanced after 2 trials
   
    23:00:00: Balanced after 3 trials
    23:00:00: Tank 1 is emptying at 17.21 ft
   
    23:05:00: Balanced after 2 trials
   
    23:10:00: Balanced after 2 trials
   
    23:15:00: Balanced after 2 trials
   
    23:20:00: Balanced after 2 trials
   
    23:25:00: Balanced after 2 trials
   
    23:30:00: Balanced after 2 trials
   
    23:35:00: Balanced after 2 trials
   
    23:40:00: Balanced after 2 trials
   
    23:45:00: Balanced after 2 trials
   
    23:50:00: Balanced after 2 trials
   
    23:55:00: Balanced after 2 trials
   
    24:00:00: Balanced after 3 trials
   
   
  Node Results at 0:00:00 hrs:
  --------------------------------------------------------
                     Demand      Head  Pressure  Chemical
  Node                  gpm        ft       psi      mg/L
  --------------------------------------------------------
  10                   0.00    144.60     -1.04      0.00
  15                 703.88    117.22     36.93      0.00
  20                   0.00    158.00     12.57      0.00
  35                1687.91    144.99     57.41      0.00
  40                   0.00    145.00      5.68      0.00
  50                   0.00    140.00     10.18      0.00
  60                   0.00    208.99     90.55      0.00
  601                  0.00    302.31    130.99      0.00
  61                   0.00    302.31    130.99      0.00
  101                262.13    144.60     44.46      0.00
  103                183.82    144.57     44.01      0.00
  105                186.81    145.95     50.89      0.00
  107                 75.40    145.95     53.71      0.00
  109                319.33    144.57     53.85      0.00
  111                195.88    145.24     58.60      0.00
  113                 27.61    145.30     62.09      0.00
  115                 71.90    146.06     57.22      0.00
  117                162.44    149.26     58.78      0.00
  119                243.06    157.01     67.17      0.00
  120                  0.00    154.50     66.95      0.00
  121                 57.45    160.59     70.45      0.00
  123                  0.00    165.05     66.75      0.00
  125                 62.93    160.07     64.59      0.00
  127                 24.37    158.60     44.46      0.00
  129                  0.00    158.59     46.62      0.00
  131                 59.00    158.57     66.11      0.00
  139                  8.13    151.59     52.25      0.00
  141                 13.59    146.60     61.79      0.00
  143                  8.56    132.95     59.56      0.00
  145                 38.13    148.15     63.76      0.00
  147                 11.80    149.31     56.68      0.00
  149                 37.36    149.79     57.97      0.00
  151                199.38    154.51     52.43      0.00
  153                 60.95    154.62     38.31      0.00
  157                 71.47    154.51     61.27      0.00
  159                 57.02    151.06     62.85      0.00
  161                 21.80    148.72     62.71      0.00
  163                 13.00    148.25     62.07      0.00
  164                  0.00    148.25     62.07      0.00
  166                  3.59    148.25     65.10      0.00
  167                 20.09    146.33     65.57      0.00
  169                  0.00    146.33     65.57      0.00
  171                 54.29    145.22     64.66      0.00
  173                  0.00    145.19     64.65      0.00
  177                 80.27    145.00     59.36      0.00
  179                  0.00    145.00     59.36      0.00
  181                  0.00    145.00     59.36      0.00
  183                  0.00    144.99     58.06      0.00
  184                  0.00    143.43     55.22      0.00
  185                 35.40    144.14     55.52      0.00
  187                  0.00    144.91     57.37      0.00
  189                148.93    145.28     61.22      0.00
  191                113.02    145.19     52.08      0.00
  193                 98.41    145.30     55.16      0.00
  195                  0.00    145.37     56.27      0.00
  197                 23.52    145.20     52.95      0.00
  199                164.66    138.99     61.09      0.00
  201                 61.56    138.10     59.80      0.00
  203               5084.36    137.89     58.88      0.00
  204                  0.00    144.64     53.57      0.00
  205                 90.20    138.98     51.12      0.00
  206                  0.00    138.14     59.42      0.00
  207                 95.76    138.23     56.00      0.00
  208                  0.00    138.04     52.88      0.00
  209                  1.20    137.87     60.61      0.00
  211                 11.96    137.81     56.68      0.00
  213                 19.24    137.75     56.65      0.00
  215                127.22    137.55     56.57      0.00
  217                 33.42    137.52     56.99      0.00
  219                 57.02    137.51     57.85      0.00
  225                 31.46    137.52     56.12      0.00
  229                 88.57    137.70     55.11      0.00
  231                 22.74    137.69     57.50      0.00
  237                 21.54    137.84     53.66      0.00
  239                 61.56    137.89     54.11      0.00
  241                  0.00    137.89     54.11      0.00
  243                  5.99    137.89     53.68      0.00
  247                 97.12    137.92     51.96      0.00
  249                  0.00    137.92     51.96      0.00
  251                 33.34    137.97     46.78      0.00
  253                 75.24    138.41     44.37      0.00
  255                 55.74    138.46     48.30      0.00
  257                  0.00    151.28     58.19      0.00
  259                  0.00    150.83     54.52      0.00
  261                  0.00    149.21     64.65      0.00
  263                  0.00    149.04     64.58      0.00
  265                  0.00    146.95     63.67      0.00
  267                  0.00    145.33     53.87      0.00
  269                  0.00    145.68     63.12      0.00
  271                  0.00    145.06     60.25      0.00
  273                  0.00    138.98     56.75      0.00
  275                  0.00    138.16     55.53      0.00
  River           -13171.84    220.00      0.00      0.00  Reservoir
  Lake                 0.00    167.00      0.00      0.00  Reservoir
  1                  -30.94    145.00      5.68      0.00  Tank
  2                 -492.62    140.00     10.18      0.00  Tank
  3                 2012.86    158.00     12.57      0.00  Tank
   
   
  Link Results at 0:00:00 hrs:
  ----------------------------------------------
                       Flow  Velocity  Headloss
  Link                  gpm       fps   /1000ft
  ----------------------------------------------
  20               -2012.86      0.08      0.00
  40                  30.94      0.00      0.00
  50                 492.62      0.02      0.00
  60               13171.84      9.34      8.94
  101                  0.00      0.00      0.00
  103                168.01      0.27      0.02
  105               -430.14      1.22      0.53
  107                 30.01      0.09      0.00
  109                -15.81      0.03      0.00
  111               -335.14      0.95      0.33
  112                501.96      1.42      0.71
  113                -93.58      0.27      0.03
  114                124.21      0.79      0.38
  115                -45.40      0.29      0.06
  116                  3.01      0.01      0.00
  117                646.96      1.84      1.13
  119               -743.46      2.11      1.46
  120               1177.98      3.34      3.43
  121               1056.55      3.00      2.81
  122                374.87      2.39      2.97
  123              10006.07      4.54      1.79
  125              13171.84      5.98      2.98
  129               2733.45      1.94      0.56
  131               2441.18      1.73      0.45
  133              -2012.86      2.06      0.77
  135                403.95      0.29      0.02
  137                 59.00      0.09      0.00
  145                344.96      2.20      2.54
  147                336.83      2.15      2.43
  149               -712.44      4.55      9.75
  151               -703.88      4.49      9.53
  153                389.20      1.10      0.44
  155                427.33      1.21      0.52
  159               -439.13      1.25      0.55
  161               -476.48      3.04      4.63
  163               -168.38      0.48      0.09
  169                229.34      1.46      1.19
  171                507.48      1.44      0.72
  173               8077.54      3.67      1.20
  175               8006.07      3.63      1.18
  177               7949.05      3.61      1.17
  179               7671.85      3.48      1.09
  180                  3.59      0.01      0.00
  181                  3.59      0.01      0.00
  183               7444.74      3.38      1.03
  185                -20.09      0.13      0.01
  186                358.69      2.29      2.74
  187               6815.16      3.09      0.88
  189               5148.00      2.34      0.52
  191              -1612.87      1.14      0.21
  193              -1687.91      1.20      0.23
  195                 65.35      0.19      0.02
  197                -14.93      0.04      0.00
  199                 16.01      0.05      0.00
  201                 30.94      0.09      0.00
  202                599.29      3.83      7.08
  203                276.00      1.76      1.68
  204                599.29      1.70      0.98
  205                358.69      1.02      0.38
  207                259.99      0.74      0.21
  209                175.72      1.12      0.73
  211                609.48      1.73      1.01
  213                182.96      0.52      0.11
  215                115.54      0.33      0.05
  217               -254.98      0.72      0.20
  219               -255.40      0.72      0.20
  221                255.40      1.63      1.46
  223                 41.01      0.12      0.01
  225                 64.52      0.18      0.02
  229               5148.00      3.65      1.55
  231               4902.15      3.48      1.42
  233               5084.36      3.61      1.76
  235                 81.18      0.23      0.02
  237                469.02      1.33      0.62
  238                250.75      0.71      0.20
  239               -122.51      0.35      0.05
  240                250.75      0.71      0.20
  241                250.75      0.71      0.20
  243                249.55      0.40      0.05
  245                296.18      0.47      0.07
  247                249.13      0.40      0.05
  249                121.91      0.19      0.01
  251                 57.02      0.12      0.01
  257                 31.46      0.09      0.00
  261                 27.81      0.18      0.02
  263                 22.74      0.06      0.00
  269                -58.59      0.17      0.01
  271                 83.50      0.53      0.18
  273               -163.63      0.46      0.09
  275                -80.65      0.23      0.02
  277                  5.99      0.02      0.00
  281                -86.64      0.35      0.07
  283               -144.54      0.41      0.07
  285                 42.70      0.12      0.01
  287               -226.47      0.93      0.39
  289                492.62      2.01      1.66
  291                 75.24      0.31      0.05
  293                135.18      0.86      0.45
  295               -101.84      0.29      0.04
  297                496.30      3.17      4.99
  299                238.45      1.52      1.28
  301                238.45      1.52      1.28
  303                257.86      1.65      1.48
  305                150.65      0.43      0.08
  307                408.51      1.16      0.48
  309                210.52      1.34      1.02
  311                -94.98      0.27      0.03
  313                469.10      1.33      0.62
  315              -1753.26      1.24      0.25
  317                121.26      0.77      0.37
  319                -40.07      0.11      0.01
  321               7655.26      3.47      1.09
  323               -243.77      0.69      0.19
  325                140.38      0.90      0.48
  329              13171.84      5.98      3.02
  330                  0.00      0.00      0.00
  333                 -0.00      0.00      0.00
  10                   0.00      0.00      0.00  Pump
  335              13171.84      0.00    -93.32  Pump
   
   
  Node Results at 0:05:00 hrs:
  --------------------------------------------------------
                     Demand      Head  Pressure  Chemical
  Node                  gpm        ft       psi      mg/L
  --------------------------------------------------------
  10                   0.00    144.61     -1.04      0.00
  15                 703.88    117.26     36.95      0.00
  20                   0.00    158.06     12.59      0.00
  35                1687.91    144.99     57.41      0.00
  40                   0.00    145.00      5.67      0.00
  50                   0.00    139.83     10.11      0.00
  60                   0.00    208.99     90.56      0.00
  601                  0.00    302.32    131.00      0.00
  61                   0.00    302.32    131.00      0.00
  101                262.13    144.61     44.46      0.00
  103                183.82    144.58     44.01      0.00
  105                186.81    145.96     50.90      0.00
  107                 75.40    145.95     53.71      0.00
  109                319.33    144.58     53.85      0.00
  111                195.88    145.25     58.60      0.00
  113                 27.61    145.30     62.09      0.00
  115                 71.90    146.07     57.23      0.00
  117                162.44    149.27     58.78      0.00
  119                243.06    157.04     67.18      0.00
  120                  0.00    154.53     66.96      0.00
  121                 57.45    160.62     70.46      0.00
  123                  0.00    165.09     66.77      0.00
  125                 62.93    160.11     64.61      0.00
  127                 24.37    158.66     44.48      0.00
  129                  0.00    158.65     46.64      0.00
  131                 59.00    158.62     66.13      0.00
  139                  8.13    151.64     52.27      0.00
  141                 13.59    146.64     61.81      0.00
  143                  8.56    132.99     59.58      0.00
  145                 38.13    148.19     63.78      0.00
  147                 11.80    149.34     56.69      0.00
  149                 37.36    149.83     57.99      0.00
  151                199.38    154.54     52.45      0.00
  153                 60.95    154.65     38.33      0.00
  157                 71.47    154.53     61.28      0.00
  159                 57.02    151.07     62.86      0.00
  161                 21.80    148.73     62.71      0.00
  163                 13.00    148.26     62.07      0.00
  164                  0.00    148.26     62.07      0.00
  166                  3.59    148.26     65.11      0.00
  167                 20.09    146.33     65.57      0.00
  169                  0.00    146.34     65.57      0.00
  171                 54.29    145.22     64.66      0.00
  173                  0.00    145.19     64.64      0.00
  177                 80.27    144.99     59.36      0.00
  179                  0.00    144.99     59.36      0.00
  181                  0.00    144.99     59.36      0.00
  183                  0.00    144.99     58.06      0.00
  184                  0.00    143.42     55.21      0.00
  185                 35.40    144.13     55.52      0.00
  187                  0.00    144.91     57.37      0.00
  189                148.93    145.28     61.22      0.00
  191                113.02    145.19     52.08      0.00
  193                 98.41    145.30     55.16      0.00
  195                  0.00    145.37     56.27      0.00
  197                 23.52    145.20     52.95      0.00
  199                164.66    138.97     61.08      0.00
  201                 61.56    138.08     59.79      0.00
  203               5084.36    137.87     58.87      0.00
  204                  0.00    144.64     53.57      0.00
  205                 90.20    138.96     51.11      0.00
  206                  0.00    138.10     59.41      0.00
  207                 95.76    138.20     55.98      0.00
  208                  0.00    138.00     52.86      0.00
  209                  1.20    137.81     60.58      0.00
  211                 11.96    137.75     56.65      0.00
  213                 19.24    137.68     56.62      0.00
  215                127.22    137.48     56.54      0.00
  217                 33.42    137.46     56.96      0.00
  219                 57.02    137.45     57.82      0.00
  225                 31.46    137.45     56.09      0.00
  229                 88.57    137.63     55.08      0.00
  231                 22.74    137.62     57.46      0.00
  237                 21.54    137.77     53.63      0.00
  239                 61.56    137.81     54.08      0.00
  241                  0.00    137.81     54.08      0.00
  243                  5.99    137.81     53.65      0.00
  247                 97.12    137.84     51.92      0.00
  249                  0.00    137.84     51.92      0.00
  251                 33.34    137.89     46.75      0.00
  253                 75.24    138.30     44.33      0.00
  255                 55.74    138.35     48.25      0.00
  257                  0.00    151.30     58.19      0.00
  259                  0.00    150.85     54.53      0.00
  261                  0.00    149.22     64.66      0.00
  263                  0.00    149.05     64.58      0.00
  265                  0.00    146.95     63.67      0.00
  267                  0.00    145.34     53.87      0.00
  269                  0.00    145.68     63.12      0.00
  271                  0.00    145.06     60.25      0.00
  273                  0.00    138.95     56.74      0.00
  275                  0.00    138.13     55.52      0.00
  River           -13170.65    220.00      0.00      0.00  Reservoir
  Lake                 0.00    167.00      0.00      0.00  Reservoir
  1                  -28.33    145.00      5.67      0.00  Tank
  2                 -482.49    139.83     10.11      0.00  Tank
  3                 1998.92    158.06     12.59      0.00  Tank
   
   
  Link Results at 0:05:00 hrs:
  ----------------------------------------------
                       Flow  Velocity  Headloss
  Link                  gpm       fps   /1000ft
  ----------------------------------------------
  20               -1998.92      0.08      0.00
  40                  28.33      0.00      0.00
  50                 482.49      0.02      0.00
  60               13170.65      9.34      8.94
  101                  0.00      0.00      0.00
  103                168.42      0.27      0.02
  105               -430.55      1.22      0.53
  107                 30.27      0.09      0.00
  109                -15.39      0.02      0.00
  111               -334.73      0.95      0.33
  112                502.89      1.43      0.71
  113                -92.84      0.26      0.03
  114                124.52      0.79      0.39
  115                -45.13      0.29      0.06
  116                  4.06      0.01      0.00
  117                647.64      1.84      1.13
  119               -744.44      2.11      1.47
  120               1179.22      3.35      3.44
  121               1057.68      3.00      2.81
  122                375.30      2.40      2.97
  123              10017.96      4.55      1.79
  125              13170.65      5.98      2.98
  129               2719.95      1.93      0.55
  131               2427.49      1.72      0.45
  133              -1998.92      2.04      0.76
  135                404.20      0.29      0.02
  137                 59.00      0.09      0.00
  145                345.20      2.20      2.55
  147                337.07      2.15      2.44
  149               -712.44      4.55      9.75
  151               -703.88      4.49      9.53
  153                388.96      1.10      0.44
  155                427.09      1.21      0.52
  159               -438.88      1.25      0.55
  161               -476.24      3.04      4.62
  163               -168.57      0.48      0.09
  169                229.53      1.47      1.20
  171                507.05      1.44      0.72
  173               8088.63      3.67      1.21
  175               8017.16      3.64      1.19
  177               7960.14      3.61      1.17
  179               7682.71      3.49      1.10
  180                  3.59      0.01      0.00
  181                  3.59      0.01      0.00
  183               7455.50      3.38      1.04
  185                -20.09      0.13      0.01
  186                359.61      2.30      2.75
  187               6825.48      3.10      0.88
  189               5156.92      2.34      0.52
  191              -1614.27      1.14      0.21
  193              -1687.91      1.20      0.23
  195                 67.05      0.19      0.02
  197                -13.23      0.04      0.00
  199                 15.10      0.04      0.00
  201                 28.33      0.08      0.00
  202                600.51      3.83      7.10
  203                276.30      1.76      1.69
  204                600.51      1.70      0.99
  205                359.61      1.02      0.38
  207                261.20      0.74      0.21
  209                175.85      1.12      0.73
  211                609.92      1.73      1.01
  213                183.76      0.52      0.11
  215                116.74      0.33      0.05
  217               -255.16      0.72      0.20
  219               -255.62      0.73      0.20
  221                255.62      1.63      1.46
  223                 41.61      0.12      0.01
  225                 65.13      0.18      0.02
  229               5156.92      3.66      1.55
  231               4908.46      3.48      1.42
  233               5084.36      3.61      1.76
  235                 83.80      0.24      0.03
  237                472.56      1.34      0.63
  238                260.89      0.74      0.21
  239               -115.91      0.33      0.05
  240                260.89      0.74      0.21
  241                260.89      0.74      0.21
  243                259.69      0.41      0.05
  245                297.21      0.47      0.07
  247                249.13      0.40      0.05
  249                121.91      0.19      0.01
  251                 57.02      0.12      0.01
  257                 31.46      0.09      0.00
  261                 28.84      0.18      0.03
  263                 22.74      0.06      0.00
  269                -49.49      0.14      0.01
  271                 82.47      0.53      0.18
  273               -153.49      0.44      0.08
  275                -76.85      0.22      0.02
  277                  5.99      0.02      0.00
  281                -82.84      0.34      0.06
  283               -138.20      0.39      0.06
  285                 40.08      0.11      0.01
  287               -220.04      0.90      0.37
  289                482.49      1.97      1.60
  291                 75.24      0.31      0.05
  293                131.47      0.84      0.43
  295                -98.12      0.28      0.03
  297                496.83      3.17      5.00
  299                238.70      1.52      1.29
  301                238.70      1.52      1.29
  303                258.13      1.65      1.49
  305                150.80      0.43      0.08
  307                408.94      1.16      0.48
  309                210.63      1.34      1.02
  311                -93.89      0.27      0.03
  313                469.23      1.33      0.62
  315              -1754.96      1.24      0.25
  317                121.55      0.78      0.37
  319                -37.75      0.11      0.01
  321               7666.13      3.48      1.09
  323               -237.46      0.67      0.18
  325                140.69      0.90      0.48
  329              13170.65      5.98      3.02
  330                  0.00      0.00      0.00
  333                 -0.00      0.00      0.00
  10                   0.00      0.00      0.00  Pump
  335              13170.65      0.00    -93.33  Pump
   
   
  Node Results at 0:10:00 hrs:
  --------------------------------------------------------
                     Demand      Head  Pressure  Chemical
  Node                  gpm        ft       psi      mg/L
  --------------------------------------------------------
  10                   0.00    144.61     -1.03      0.00
  15                 703.88    117.30     36.96      0.00
  20                   0.00    158.13     12.62      0.00
  35                1687.91    144.98     57.40      0.00
  40                   0.00    144.99      5.67      0.00
  50                   0.00    139.67     10.04      0.00
  60                   0.00    208.99     90.56      0.00
  601                  0.00    302.33    131.00      0.00
  61                   0.00    302.33    131.00      0.00
  101                262.13    144.61     44.46      0.00
  103                183.82    144.58     44.02      0.00
  105                186.81    145.97     50.90      0.00
  107                 75.40    145.96     53.71      0.00
  109                319.33    144.58     53.85      0.00
  111                195.88    145.25     58.60      0.00
  113                 27.61    145.30     62.09      0.00
  115                 71.90    146.07     57.23      0.00
  117                162.44    149.28     58.79      0.00
  119                243.06    157.07     67.19      0.00
  120                  0.00    154.55     66.97      0.00
  121                 57.45    160.66     70.48      0.00
  123                  0.00    165.12     66.78      0.00
  125                 62.93    160.15     64.63      0.00
  127                 24.37    158.72     44.51      0.00
  129                  0.00    158.70     46.67      0.00
  131                 59.00    158.68     66.16      0.00
  139                  8.13    151.69     52.29      0.00
  141                 13.59    146.68     61.82      0.00
  143                  8.56    133.03     59.59      0.00
  145                 38.13    148.23     63.79      0.00
  147                 11.80    149.38     56.71      0.00
  149                 37.36    149.86     58.00      0.00
  151                199.38    154.58     52.46      0.00
  153                 60.95    154.69     38.34      0.00
  157                 71.47    154.55     61.29      0.00
  159                 57.02    151.09     62.87      0.00
  161                 21.80    148.74     62.71      0.00
  163                 13.00    148.26     62.08      0.00
  164                  0.00    148.26     62.08      0.00
  166                  3.59    148.26     65.11      0.00
  167                 20.09    146.34     65.57      0.00
  169                  0.00    146.34     65.57      0.00
  171                 54.29    145.21     64.65      0.00
  173                  0.00    145.19     64.64      0.00
  177                 80.27    144.99     59.36      0.00
  179                  0.00    144.99     59.36      0.00
  181                  0.00    144.99     59.36      0.00
  183                  0.00    144.99     58.06      0.00
  184                  0.00    143.42     55.21      0.00
  185                 35.40    144.13     55.52      0.00
  187                  0.00    144.91     57.37      0.00
  189                148.93    145.28     61.22      0.00
  191                113.02    145.19     52.08      0.00
  193                 98.41    145.30     55.16      0.00
  195                  0.00    145.37     56.27      0.00
  197                 23.52    145.20     52.95      0.00
  199                164.66    138.95     61.07      0.00
  201                 61.56    138.05     59.78      0.00
  203               5084.36    137.84     58.86      0.00
  204                  0.00    144.63     53.57      0.00
  205                 90.20    138.93     51.10      0.00
  206                  0.00    138.06     59.39      0.00
  207                 95.76    138.16     55.97      0.00
  208                  0.00    137.95     52.84      0.00
  209                  1.20    137.75     60.55      0.00
  211                 11.96    137.68     56.62      0.00
  213                 19.24    137.62     56.60      0.00
  215                127.22    137.41     56.51      0.00
  217                 33.42    137.39     56.93      0.00
  219                 57.02    137.38     57.79      0.00
  225                 31.46    137.38     56.06      0.00
  229                 88.57    137.56     55.05      0.00
  231                 22.74    137.55     57.43      0.00
  237                 21.54    137.69     53.60      0.00
  239                 61.56    137.73     54.05      0.00
  241                  0.00    137.73     54.05      0.00
  243                  5.99    137.73     53.61      0.00
  247                 97.12    137.76     51.89      0.00
  249                  0.00    137.76     51.89      0.00
  251                 33.34    137.80     46.71      0.00
  253                 75.24    138.19     44.28      0.00
  255                 55.74    138.25     48.20      0.00
  257                  0.00    151.32     58.20      0.00
  259                  0.00    150.87     54.54      0.00
  261                  0.00    149.23     64.66      0.00
  263                  0.00    149.06     64.59      0.00
  265                  0.00    146.95     63.67      0.00
  267                  0.00    145.34     53.87      0.00
  269                  0.00    145.68     63.12      0.00
  271                  0.00    145.05     60.25      0.00
  273                  0.00    138.93     56.73      0.00
  275                  0.00    138.10     55.51      0.00
  River           -13169.46    220.00      0.00      0.00  Reservoir
  Lake                 0.00    167.00      0.00      0.00  Reservoir
  1                  -25.77    144.99      5.67      0.00  Tank
  2                 -472.41    139.67     10.04      0.00  Tank
  3                 1985.10    158.13     12.62      0.00  Tank
   
   
  Link Results at 0:10:00 hrs:
  ----------------------------------------------
                       Flow  Velocity  Headloss
  Link                  gpm       fps   /1000ft
  ----------------------------------------------
  20               -1985.10      0.08      0.00
  40                  25.77      0.00      0.00
  50                 472.41      0.02      0.00
  60               13169.46      9.34      8.94
  101                  0.00      0.00      0.00
  103                168.84      0.27      0.02
  105               -430.97      1.22      0.53
  107                 30.54      0.09      0.00
  109                -14.98      0.02      0.00
  111               -334.31      0.95      0.33
  112                503.81      1.43      0.71
  113                -92.11      0.26      0.03
  114                124.83      0.80      0.39
  115                -44.87      0.29      0.06
  116                  5.11      0.01      0.00
  117                648.31      1.84      1.14
  119               -745.41      2.11      1.47
  120               1180.44      3.35      3.45
  121               1058.80      3.00      2.82
  122                375.72      2.40      2.98
  123              10029.74      4.55      1.80
  125              13169.46      5.98      2.98
  129               2706.56      1.92      0.55
  131               2413.91      1.71      0.44
  133              -1985.10      2.03      0.75
  135                404.44      0.29      0.02
  137                 59.00      0.09      0.00
  145                345.44      2.20      2.55
  147                337.31      2.15      2.44
  149               -712.44      4.55      9.75
  151               -703.88      4.49      9.53
  153                388.72      1.10      0.44
  155                426.84      1.21      0.52
  159               -438.64      1.24      0.55
  161               -476.00      3.04      4.62
  163               -168.76      0.48      0.09
  169                229.72      1.47      1.20
  171                506.62      1.44      0.72
  173               8099.62      3.68      1.21
  175               8028.15      3.64      1.19
  177               7971.13      3.62      1.17
  179               7693.48      3.49      1.10
  180                  3.59      0.01      0.00
  181                  3.59      0.01      0.00
  183               7466.15      3.39      1.04
  185                -20.09      0.13      0.01
  186                360.51      2.30      2.76
  187               6835.71      3.10      0.88
  189               5165.79      2.34      0.53
  191              -1615.63      1.15      0.21
  193              -1687.91      1.20      0.23
  195                 68.71      0.19      0.02
  197                -11.57      0.03      0.00
  199                 14.21      0.04      0.00
  201                 25.77      0.07      0.00
  202                601.72      3.84      7.13
  203                276.60      1.77      1.69
  204                601.72      1.71      0.99
  205                360.51      1.02      0.38
  207                262.39      0.74      0.21
  209                175.97      1.12      0.73
  211                610.35      1.73      1.02
  213                184.54      0.52      0.11
  215                117.93      0.33      0.05
  217               -255.35      0.72      0.20
  219               -255.84      0.73      0.20
  221                255.84      1.63      1.46
  223                 42.21      0.12      0.01
  225                 65.73      0.19      0.02
  229               5165.79      3.66      1.56
  231               4914.81      3.49      1.42
  233               5084.36      3.61      1.76
  235                 86.32      0.24      0.03
  237                475.99      1.35      0.64
  238                270.97      0.77      0.23
  239               -109.26      0.31      0.04
  240                270.97      0.77      0.23
  241                270.97      0.77      0.23
  243                269.77      0.43      0.06
  245                298.09      0.48      0.07
  247                249.13      0.40      0.05
  249                121.91      0.19      0.01
  251                 57.02      0.12      0.01
  257                 31.46      0.09      0.00
  261                 29.72      0.19      0.03
  263                 22.74      0.06      0.00
  269                -40.29      0.11      0.01
  271                 81.59      0.52      0.18
  273               -143.42      0.41      0.07
  275                -73.08      0.21      0.02
  277                  5.99      0.02      0.00
  281                -79.07      0.32      0.06
  283               -131.90      0.37      0.06
  285                 37.47      0.11      0.01
  287               -213.66      0.87      0.35
  289                472.41      1.93      1.54
  291                 75.24      0.31      0.05
  293                127.77      0.82      0.40
  295                -94.43      0.27      0.03
  297                497.36      3.17      5.01
  299                238.95      1.53      1.29
  301                238.95      1.53      1.29
  303                258.41      1.65      1.49
  305                150.95      0.43      0.08
  307                409.36      1.16      0.48
  309                210.74      1.35      1.02
  311                -92.81      0.26      0.03
  313                469.36      1.33      0.62
  315              -1756.62      1.25      0.25
  317                121.85      0.78      0.37
  319                -35.53      0.10      0.01
  321               7676.90      3.48      1.10
  323               -231.11      0.66      0.17
  325                140.99      0.90      0.49
  329              13169.46      5.98      3.02
  330                  0.00      0.00      0.00
  333                 -0.00      0.00      0.00
  10                   0.00      0.00      0.00  Pump
  335              13169.46      0.00    -93.34  Pump
   
   
  Node Results at 0:15:00 hrs:
  --------------------------------------------------------
                     Demand      Head  Pressure  Chemical
  Node                  gpm        ft       psi      mg/L
  --------------------------------------------------------
  10                   0.00    144.62     -1.03      0.00
  15                 703.88    117.34     36.98      0.00
  20                   0.00    158.19     12.65      0.00
  35                1687.91    144.98     57.40      0.00
  40                   0.00    144.99      5.67      0.00
  50                   0.00    139.51      9.97      0.00
  60                   0.00    208.99     90.56      0.00
  601                  0.00    302.35    131.01      0.00
  61                   0.00    302.35    131.01      0.00
  101                262.13    144.62     44.46      0.00
  103                183.82    144.59     44.02      0.00
  105                186.81    145.97     50.90      0.00
  107                 75.40    145.97     53.72      0.00
  109                319.33    144.59     53.85      0.00
  111                195.88    145.25     58.60      0.00
  113                 27.61    145.30     62.09      0.00
  115                 71.90    146.08     57.23      0.00
  117                162.44    149.29     58.80      0.00
  119                243.06    157.09     67.20      0.00
  120                  0.00    154.57     66.98      0.00
  121                 57.45    160.70     70.50      0.00
  123                  0.00    165.16     66.80      0.00
  125                 62.93    160.19     64.64      0.00
  127                 24.37    158.77     44.53      0.00
  129                  0.00    158.76     46.69      0.00
  131                 59.00    158.73     66.18      0.00
  139                  8.13    151.73     52.31      0.00
  141                 13.59    146.72     61.84      0.00
  143                  8.56    133.07     59.61      0.00
  145                 38.13    148.27     63.81      0.00
  147                 11.80    149.42     56.73      0.00
  149                 37.36    149.90     58.02      0.00
  151                199.38    154.61     52.48      0.00
  153                 60.95    154.72     38.36      0.00
  157                 71.47    154.57     61.30      0.00
  159                 57.02    151.10     62.87      0.00
  161                 21.80    148.74     62.72      0.00
  163                 13.00    148.27     62.08      0.00
  164                  0.00    148.27     62.08      0.00
  166                  3.59    148.27     65.11      0.00
  167                 20.09    146.34     65.57      0.00
  169                  0.00    146.34     65.57      0.00
  171                 54.29    145.21     64.65      0.00
  173                  0.00    145.19     64.64      0.00
  177                 80.27    144.99     59.36      0.00
  179                  0.00    144.99     59.36      0.00
  181                  0.00    144.99     59.36      0.00
  183                  0.00    144.99     58.06      0.00
  184                  0.00    143.41     55.21      0.00
  185                 35.40    144.12     55.52      0.00
  187                  0.00    144.91     57.37      0.00
  189                148.93    145.28     61.22      0.00
  191                113.02    145.20     52.08      0.00
  193                 98.41    145.30     55.16      0.00
  195                  0.00    145.37     56.27      0.00
  197                 23.52    145.20     52.95      0.00
  199                164.66    138.93     61.06      0.00
  201                 61.56    138.03     59.76      0.00
  203               5084.36    137.82     58.85      0.00
  204                  0.00    144.63     53.57      0.00
  205                 90.20    138.91     51.09      0.00
  206                  0.00    138.02     59.37      0.00
  207                 95.76    138.13     55.95      0.00
  208                  0.00    137.90     52.82      0.00
  209                  1.20    137.69     60.53      0.00
  211                 11.96    137.61     56.60      0.00
  213                 19.24    137.55     56.57      0.00
  215                127.22    137.34     56.48      0.00
  217                 33.42    137.32     56.90      0.00
  219                 57.02    137.31     57.76      0.00
  225                 31.46    137.32     56.03      0.00
  229                 88.57    137.49     55.02      0.00
  231                 22.74    137.48     57.40      0.00
  237                 21.54    137.62     53.57      0.00
  239                 61.56    137.65     54.01      0.00
  241                  0.00    137.65     54.01      0.00
  243                  5.99    137.65     53.58      0.00
  247                 97.12    137.68     51.86      0.00
  249                  0.00    137.68     51.86      0.00
  251                 33.34    137.72     46.68      0.00
  253                 75.24    138.09     44.23      0.00
  255                 55.74    138.14     48.16      0.00
  257                  0.00    151.34     58.21      0.00
  259                  0.00    150.88     54.55      0.00
  261                  0.00    149.24     64.67      0.00
  263                  0.00    149.07     64.59      0.00
  265                  0.00    146.95     63.67      0.00
  267                  0.00    145.34     53.88      0.00
  269                  0.00    145.68     63.12      0.00
  271                  0.00    145.05     60.25      0.00
  273                  0.00    138.91     56.72      0.00
  275                  0.00    138.08     55.50      0.00
  River           -13168.28    220.00      0.00      0.00  Reservoir
  Lake                 0.00    167.00      0.00      0.00  Reservoir
  1                  -23.27    144.99      5.67      0.00  Tank
  2                 -462.39    139.51      9.97      0.00  Tank
  3                 1971.40    158.19     12.65      0.00  Tank
   
   
  Link Results at 0:15:00 hrs:
  ----------------------------------------------
                       Flow  Velocity  Headloss
  Link                  gpm       fps   /1000ft
  ----------------------------------------------
  20               -1971.40      0.08      0.00
  40                  23.27      0.00      0.00
  50                 462.39      0.02      0.00
  60               13168.28      9.34      8.94
  101                  0.00      0.00      0.00
  103                169.25      0.27      0.02
  105               -431.38      1.22      0.53
  107                 30.80      0.09      0.00
  109                -14.57      0.02      0.00
  111               -333.90      0.95      0.33
  112                504.73      1.43      0.71
  113                -91.38      0.26      0.03
  114                125.14      0.80      0.39
  115                -44.61      0.28      0.06
  116                  6.15      0.02      0.00
  117                648.98      1.84      1.14
  119               -746.37      2.12      1.47
  120               1181.65      3.35      3.45
  121               1059.91      3.01      2.82
  122                376.14      2.40      2.99
  123              10041.41      4.56      1.80
  125              13168.28      5.98      2.98
  129               2693.28      1.91      0.54
  131               2400.44      1.70      0.44
  133              -1971.40      2.01      0.74
  135                404.67      0.29      0.02
  137                 59.00      0.09      0.00
  145                345.68      2.21      2.55
  147                337.55      2.15      2.44
  149               -712.44      4.55      9.75
  151               -703.88      4.49      9.53
  153                388.48      1.10      0.44
  155                426.61      1.21      0.52
  159               -438.41      1.24      0.55
  161               -475.76      3.04      4.62
  163               -168.95      0.48      0.09
  169                229.91      1.47      1.20
  171                506.19      1.44      0.72
  173               8110.51      3.68      1.21
  175               8039.04      3.65      1.19
  177               7982.02      3.62      1.18
  179               7704.16      3.50      1.10
  180                  3.59      0.01      0.00
  181                  3.59      0.01      0.00
  183               7476.72      3.39      1.04
  185                -20.09      0.13      0.01
  186                361.41      2.31      2.77
  187               6845.85      3.11      0.89
  189               5174.61      2.35      0.53
  191              -1616.94      1.15      0.21
  193              -1687.91      1.20      0.23
  195                 70.33      0.20      0.02
  197                 -9.95      0.03      0.00
  199                 13.32      0.04      0.00
  201                 23.27      0.07      0.00
  202                602.91      3.85      7.16
  203                276.89      1.77      1.69
  204                602.91      1.71      0.99
  205                361.41      1.03      0.38
  207                263.57      0.75      0.21
  209                176.10      1.12      0.73
  211                610.78      1.73      1.02
  213                185.32      0.53      0.11
  215                119.11      0.34      0.05
  217               -255.53      0.72      0.20
  219               -256.06      0.73      0.20
  221                256.06      1.63      1.47
  223                 42.81      0.12      0.01
  225                 66.32      0.19      0.02
  229               5174.61      3.67      1.56
  231               4921.22      3.49      1.43
  233               5084.36      3.61      1.76
  235                 88.74      0.25      0.03
  237                479.31      1.36      0.65
  238                280.99      0.80      0.24
  239               -102.57      0.29      0.04
  240                280.99      0.80      0.24
  241                280.99      0.80      0.24
  243                279.79      0.45      0.06
  245                298.82      0.48      0.07
  247                249.13      0.40      0.05
  249                121.91      0.19      0.01
  251                 57.02      0.12      0.01
  257                 31.46      0.09      0.00
  261                 30.45      0.19      0.03
  263                 22.74      0.06      0.00
  269                -30.99      0.09      0.00
  271                 80.86      0.52      0.17
  273               -133.40      0.38      0.06
  275                -69.33      0.20      0.02
  277                  5.99      0.02      0.00
  281                -75.32      0.31      0.05
  283               -125.63      0.36      0.05
  285                 34.87      0.10      0.00
  287               -207.32      0.85      0.33
  289                462.39      1.89      1.48
  291                 75.24      0.31      0.05
  293                124.10      0.79      0.38
  295                -90.76      0.26      0.03
  297                497.88      3.18      5.02
  299                239.20      1.53      1.29
  301                239.20      1.53      1.29
  303                258.68      1.65      1.49
  305                151.10      0.43      0.08
  307                409.78      1.16      0.49
  309                210.85      1.35      1.02
  311                -91.74      0.26      0.03
  313                469.49      1.33      0.62
  315              -1758.24      1.25      0.25
  317                122.14      0.78      0.37
  319                -33.40      0.09      0.00
  321               7687.57      3.49      1.10
  323               -224.71      0.64      0.16
  325                141.29      0.90      0.49
  329              13168.28      5.98      3.02
  330                  0.00      0.00      0.00
  333                 -0.00      0.00      0.00
  10                   0.00      0.00      0.00  Pump
  335              13168.28      0.00    -93.35  Pump
   
   
  Node Results at 0:20:00 hrs:
  --------------------------------------------------------
                     Demand      Head  Pressure  Chemical
  Node                  gpm        ft       psi      mg/L
  --------------------------------------------------------
  10                   0.00    144.62     -1.03      0.00
  15                 703.88    117.38     37.00      0.00
  20                   0.00    158.25     12.67      0.00
  35                1687.91    144.98     57.40      0.00
  40                   0.00    144.99      5.67      0.00
  50                   0.00    139.35      9.90      0.00
  60                   0.00    209.00     90.56      0.00
  601                  0.00    302.36    131.01      0.00
  61                   0.00    302.36    131.01      0.00
  101                262.13    144.62     44.47      0.00
  103                183.82    144.59     44.02      0.00
  105                186.81    145.98     50.90      0.00
  107                 75.40    145.97     53.72      0.00
  109                319.33    144.59     53.86      0.00
  111                195.88    145.25     58.61      0.00
  113                 27.61    145.30     62.09      0.00
  115                 71.90    146.09     57.23      0.00
  117                162.44    149.31     58.80      0.00
  119                243.06    157.12     67.21      0.00
  120                  0.00    154.60     66.99      0.00
  121                 57.45    160.73     70.51      0.00
  123                  0.00    165.19     66.81      0.00
  125                 62.93    160.23     64.66      0.00
  127                 24.37    158.83     44.55      0.00
  129                  0.00    158.81     46.71      0.00
  131                 59.00    158.79     66.20      0.00
  139                  8.13    151.78     52.33      0.00
  141                 13.59    146.76     61.86      0.00
  143                  8.56    133.11     59.63      0.00
  145                 38.13    148.30     63.83      0.00
  147                 11.80    149.45     56.74      0.00
  149                 37.36    149.94     58.03      0.00
  151                199.38    154.64     52.49      0.00
  153                 60.95    154.75     38.37      0.00
  157                 71.47    154.59     61.31      0.00
  159                 57.02    151.11     62.88      0.00
  161                 21.80    148.75     62.72      0.00
  163                 13.00    148.28     62.08      0.00
  164                  0.00    148.28     62.08      0.00
  166                  3.59    148.28     65.11      0.00
  167                 20.09    146.34     65.57      0.00
  169                  0.00    146.34     65.57      0.00
  171                 54.29    145.21     64.65      0.00
  173                  0.00    145.18     64.64      0.00
  177                 80.27    144.98     59.36      0.00
  179                  0.00    144.98     59.36      0.00
  181                  0.00    144.99     59.36      0.00
  183                  0.00    144.98     58.06      0.00
  184                  0.00    143.40     55.20      0.00
  185                 35.40    144.12     55.51      0.00
  187                  0.00    144.91     57.37      0.00
  189                148.93    145.28     61.22      0.00
  191                113.02    145.20     52.08      0.00
  193                 98.41    145.30     55.16      0.00
  195                  0.00    145.38     56.28      0.00
  197                 23.52    145.21     52.95      0.00
  199                164.66    138.91     61.05      0.00
  201                 61.56    138.01     59.75      0.00
  203               5084.36    137.79     58.84      0.00
  204                  0.00    144.63     53.57      0.00
  205                 90.20    138.89     51.08      0.00
  206                  0.00    137.98     59.35      0.00
  207                 95.76    138.10     55.94      0.00
  208                  0.00    137.85     52.80      0.00
  209                  1.20    137.62     60.50      0.00
  211                 11.96    137.55     56.57      0.00
  213                 19.24    137.48     56.54      0.00
  215                127.22    137.28     56.45      0.00
  217                 33.42    137.26     56.87      0.00
  219                 57.02    137.24     57.73      0.00
  225                 31.46    137.25     56.00      0.00
  229                 88.57    137.42     54.99      0.00
  231                 22.74    137.41     57.37      0.00
  237                 21.54    137.55     53.53      0.00
  239                 61.56    137.58     53.98      0.00
  241                  0.00    137.58     53.98      0.00
  243                  5.99    137.58     53.55      0.00
  247                 97.12    137.60     51.82      0.00
  249                  0.00    137.60     51.82      0.00
  251                 33.34    137.64     46.64      0.00
  253                 75.24    137.98     44.19      0.00
  255                 55.74    138.04     48.11      0.00
  257                  0.00    151.35     58.21      0.00
  259                  0.00    150.90     54.55      0.00
  261                  0.00    149.26     64.67      0.00
  263                  0.00    149.09     64.60      0.00
  265                  0.00    146.96     63.68      0.00
  267                  0.00    145.34     53.88      0.00
  269                  0.00    145.68     63.12      0.00
  271                  0.00    145.05     60.25      0.00
  273                  0.00    138.88     56.71      0.00
  275                  0.00    138.05     55.48      0.00
  River           -13167.09    220.00      0.00      0.00  Reservoir
  Lake                 0.00    167.00      0.00      0.00  Reservoir
  1                  -20.83    144.99      5.67      0.00  Tank
  2                 -452.42    139.35      9.90      0.00  Tank
  3                 1957.81    158.25     12.67      0.00  Tank
   
   
  Link Results at 0:20:00 hrs:
  ----------------------------------------------
                       Flow  Velocity  Headloss
  Link                  gpm       fps   /1000ft
  ----------------------------------------------
  20               -1957.81      0.08      0.00
  40                  20.83      0.00      0.00
  50                 452.42      0.02      0.00
  60               13167.09      9.34      8.94
  101                  0.00      0.00      0.00
  103                169.65      0.27      0.02
  105               -431.78      1.22      0.54
  107                 31.06      0.09      0.00
  109                -14.16      0.02      0.00
  111               -333.50      0.95      0.33
  112                505.63      1.43      0.72
  113                -90.66      0.26      0.03
  114                125.44      0.80      0.39
  115                -44.35      0.28      0.06
  116                  7.17      0.02      0.00
  117                649.65      1.84      1.14
  119               -747.32      2.12      1.48
  120               1182.86      3.36      3.46
  121               1061.01      3.01      2.83
  122                376.55      2.40      2.99
  123              10052.99      4.56      1.80
  125              13167.09      5.98      2.98
  129               2680.11      1.90      0.54
  131               2387.09      1.69      0.43
  133              -1957.81      2.00      0.73
  135                404.91      0.29      0.02
  137                 59.00      0.09      0.00
  145                345.91      2.21      2.56
  147                337.79      2.16      2.45
  149               -712.44      4.55      9.75
  151               -703.88      4.49      9.53
  153                388.24      1.10      0.44
  155                426.37      1.21      0.52
  159               -438.17      1.24      0.55
  161               -475.53      3.04      4.61
  163               -169.14      0.48      0.09
  169                230.09      1.47      1.20
  171                505.77      1.43      0.72
  173               8121.30      3.69      1.22
  175               8049.83      3.65      1.20
  177               7992.81      3.63      1.18
  179               7714.73      3.50      1.11
  180                  3.59      0.01      0.00
  181                  3.59      0.01      0.00
  183               7487.19      3.40      1.05
  185                -20.09      0.13      0.01
  186                362.31      2.31      2.79
  187               6855.90      3.11      0.89
  189               5183.39      2.35      0.53
  191              -1618.21      1.15      0.21
  193              -1687.91      1.20      0.23
  195                 71.90      0.20      0.02
  197                 -8.38      0.02      0.00
  199                 12.45      0.04      0.00
  201                 20.83      0.06      0.00
  202                604.10      3.86      7.18
  203                277.19      1.77      1.70
  204                604.10      1.71      1.00
  205                362.31      1.03      0.39
  207                264.74      0.75      0.22
  209                176.22      1.12      0.73
  211                611.20      1.73      1.02
  213                186.09      0.53      0.11
  215                120.28      0.34      0.05
  217               -255.71      0.73      0.20
  219               -256.27      0.73      0.20
  221                256.27      1.64      1.47
  223                 43.40      0.12      0.01
  225                 66.91      0.19      0.02
  229               5183.39      3.68      1.57
  231               4927.68      3.49      1.43
  233               5084.36      3.61      1.76
  235                 91.05      0.26      0.03
  237                482.52      1.37      0.66
  238                290.95      0.83      0.26
  239                -95.81      0.27      0.03
  240                290.95      0.83      0.26
  241                290.95      0.83      0.26
  243                289.75      0.46      0.06
  245                299.38      0.48      0.07
  247                249.13      0.40      0.05
  249                121.91      0.19      0.01
  251                 57.02      0.12      0.01
  257                 31.46      0.09      0.00
  261                 31.01      0.20      0.03
  263                 22.74      0.06      0.00
  269                -21.59      0.06      0.00
  271                 80.30      0.51      0.17
  273               -123.43      0.35      0.05
  275                -65.60      0.19      0.02
  277                  5.99      0.02      0.00
  281                -71.58      0.29      0.05
  283               -119.40      0.34      0.05
  285                 32.30      0.09      0.00
  287               -201.00      0.82      0.32
  289                452.42      1.85      1.42
  291                 75.24      0.31      0.05
  293                120.44      0.77      0.36
  295                -87.10      0.25      0.03
  297                498.40      3.18      5.03
  299                239.45      1.53      1.29
  301                239.45      1.53      1.29
  303                258.95      1.65      1.50
  305                151.25      0.43      0.08
  307                410.20      1.16      0.49
  309                210.96      1.35      1.02
  311                -90.68      0.26      0.03
  313                469.61      1.33      0.63
  315              -1759.81      1.25      0.25
  317                122.43      0.78      0.37
  319                -31.38      0.09      0.00
  321               7698.15      3.49      1.10
  323               -218.24      0.62      0.15
  325                141.59      0.90      0.49
  329              13167.09      5.98      3.01
  330                  0.00      0.00      0.00
  333                 -0.00      0.00      0.00
  10                   0.00      0.00      0.00  Pump
  335              13167.09      0.00    -93.36  Pump
   
   
  Node Results at 0:25:00 hrs:
  --------------------------------------------------------
                     Demand      Head  Pressure  Chemical
  Node                  gpm        ft       psi      mg/L
  --------------------------------------------------------
  10                   0.00    144.63     -1.03      0.00
  15                 703.88    117.42     37.01      0.00
  20                   0.00    158.31     12.70      0.00
  35                1687.91    144.98     57.40      0.00
  40                   0.00    144.98      5.67      0.00
  50                   0.00    139.20      9.83      0.00
  60                   0.00    209.00     90.56      0.00
  601                  0.00    302.37    131.02      0.00
  61                   0.00    302.37    131.02      0.00
  101                262.13    144.63     44.47      0.00
  103                183.82    144.59     44.02      0.00
  105                186.81    145.99     50.91      0.00
  107                 75.40    145.98     53.72      0.00
  109                319.33    144.60     53.86      0.00
  111                195.88    145.26     58.61      0.00
  113                 27.61    145.31     62.09      0.00
  115                 71.90    146.09     57.24      0.00
  117                162.44    149.32     58.81      0.00
  119                243.06    157.15     67.23      0.00
  120                  0.00    154.62     67.00      0.00
  121                 57.45    160.77     70.53      0.00
  123                  0.00    165.23     66.83      0.00
  125                 62.93    160.27     64.68      0.00
  127                 24.37    158.88     44.58      0.00
  129                  0.00    158.87     46.74      0.00
  131                 59.00    158.84     66.23      0.00
  139                  8.13    151.82     52.35      0.00
  141                 13.59    146.80     61.88      0.00
  143                  8.56    133.15     59.64      0.00
  145                 38.13    148.34     63.84      0.00
  147                 11.80    149.49     56.76      0.00
  149                 37.36    149.97     58.05      0.00
  151                199.38    154.67     52.50      0.00
  153                 60.95    154.78     38.38      0.00
  157                 71.47    154.61     61.32      0.00
  159                 57.02    151.13     62.88      0.00
  161                 21.80    148.76     62.72      0.00
  163                 13.00    148.28     62.08      0.00
  164                  0.00    148.28     62.08      0.00
  166                  3.59    148.28     65.12      0.00
  167                 20.09    146.34     65.58      0.00
  169                  0.00    146.34     65.58      0.00
  171                 54.29    145.21     64.65      0.00
  173                  0.00    145.18     64.64      0.00
  177                 80.27    144.98     59.35      0.00
  179                  0.00    144.98     59.35      0.00
  181                  0.00    144.98     59.35      0.00
  183                  0.00    144.98     58.05      0.00
  184                  0.00    143.40     55.20      0.00
  185                 35.40    144.12     55.51      0.00
  187                  0.00    144.91     57.37      0.00
  189                148.93    145.28     61.22      0.00
  191                113.02    145.20     52.08      0.00
  193                 98.41    145.31     55.16      0.00
  195                  0.00    145.38     56.28      0.00
  197                 23.52    145.21     52.95      0.00
  199                164.66    138.88     61.05      0.00
  201                 61.56    137.98     59.74      0.00
  203               5084.36    137.77     58.83      0.00
  204                  0.00    144.63     53.57      0.00
  205                 90.20    138.86     51.07      0.00
  206                  0.00    137.94     59.34      0.00
[...]
  219                 66.11    139.68     58.79      0.00
  225                 36.48    139.68     57.06      0.00
  229                102.69    139.77     56.01     28.57
  231                 26.37    139.77     58.39      0.00
  237                 24.98    139.87     54.54      9.54
  239                 71.38    139.86     54.97     41.05
  241                  0.00    139.86     54.97      0.00
  243                  6.94    139.86     54.54      0.00
  247                112.61    139.86     52.80      0.00
  249                  0.00    139.86     52.80      0.00
  251                 38.66    139.86     47.60      0.00
  253                 87.23    139.89     45.01      0.00
  255                 64.62    139.96     48.95      0.00
  257                  0.00    152.47     58.70      0.00
  259                  0.00    152.04     55.05      0.00
  261                  0.00    150.51     65.21      0.00
  263                  0.00    150.34     65.14      0.00
  265                  0.00    149.48     64.77      0.00
  267                  0.00    147.85     54.96      0.00
  269                  0.00    148.33     64.27      0.00
  271                  0.00    147.96     61.51      0.00
  273                  0.00    142.77     58.40      0.00
  275                  0.00    142.13     57.25      0.00
  River           -13199.50    220.00      0.00      0.00  Reservoir
  Lake                 0.00    167.00      0.00      0.00  Reservoir
  1                 -410.25    148.50      7.19      0.00  Tank
  2                 -298.55    140.57     10.43      0.00  Tank
  3                  985.20    160.13     13.49      0.00  Tank
   
   
  Link Results at 23:55:00 hrs:
  ----------------------------------------------
                       Flow  Velocity  Headloss
  Link                  gpm       fps   /1000ft
  ----------------------------------------------
  20                -985.20      0.04      0.00
  40                 410.25      0.02      0.00
  50                 298.55      0.01      0.00
  60               13199.50      9.36      8.98
  101                  0.00      0.00      0.00
  103                122.63      0.20      0.01
  105               -426.55      1.21      0.52
  107                 -8.91      0.03      0.00
  109                -90.49      0.14      0.01
  111               -460.73      1.31      0.60
  112                415.66      1.18      0.50
  113               -183.89      0.52      0.11
  114                 86.59      0.55      0.20
  115                -96.33      0.61      0.24
  116               -129.31      0.37      0.06
  117                634.23      1.80      1.09
  119               -681.94      1.93      1.25
  120               1151.64      3.27      3.29
  121               1023.42      2.90      2.65
  122                352.88      2.25      2.65
  123               9157.15      4.16      1.52
  125              11163.44      5.07      2.19
  129               1586.81      1.13      0.20
  131               1317.19      0.93      0.14
  133               -985.20      1.01      0.20
  135                303.73      0.22      0.01
  137                 68.40      0.11      0.00
  145                235.33      1.50      1.25
  147                225.91      1.44      1.16
  149               -362.68      2.31      2.79
  151               -352.76      2.25      2.65
  153                152.53      0.43      0.08
  155                196.74      0.56      0.12
  159               -210.42      0.60      0.14
  161               -253.73      1.62      1.44
  163               -125.99      0.36      0.05
  169                196.66      1.26      0.90
  171                358.91      1.02      0.38
  173               7364.79      3.34      1.01
  175               7281.93      3.31      0.99
  177               7215.81      3.28      0.98
  179               6935.64      3.15      0.91
  180                  4.16      0.01      0.00
  181                  4.16      0.01      0.00
  183               6704.48      3.04      0.85
  185                -23.30      0.15      0.02
  186                273.91      1.75      1.66
  187               6076.49      2.76      0.71
  189               4688.07      2.13      0.44
  191              -1325.47      0.94      0.15
  193              -1479.45      1.05      0.18
  195                -48.11      0.14      0.01
  197               -141.18      0.40      0.07
  199                269.07      0.76      0.22
  201                410.25      1.16      0.49
  202                531.01      3.39      5.66
  203                298.14      1.90      1.94
  204                531.01      1.51      0.78
  205                273.91      0.78      0.23
  207                 29.07      0.08      0.00
  209                213.74      1.36      1.05
  211                604.70      1.72      1.00
  213                 60.17      0.17      0.01
  215                -83.34      0.24      0.03
  217               -306.76      0.87      0.28
  219               -254.90      0.72      0.20
  221                254.90      1.63      1.45
  223               -115.55      0.33      0.05
  225                -88.29      0.25      0.03
  229               4688.07      3.32      1.30
  231               4329.66      3.07      1.12
  233               4177.85      2.96      1.22
  235                167.50      0.48      0.09
  237                487.00      1.38      0.67
  238                563.34      1.60      0.88
  239                187.37      0.53      0.11
  240                563.34      1.60      0.88
  241                563.34      1.60      0.88
  243                561.95      0.90      0.21
  245                370.95      0.59      0.10
  247                288.85      0.46      0.06
  249                141.34      0.23      0.02
  251                 66.11      0.14      0.01
  257                 36.48      0.10      0.01
  261                 59.79      0.38      0.10
  263                 26.37      0.07      0.00
  269                177.13      0.50      0.10
  271                 69.26      0.44      0.13
  273                 82.89      0.24      0.03
  275                  8.81      0.03      0.00
  277                  6.94      0.02      0.00
  281                  1.87      0.01      0.00
  283                  2.70      0.01      0.00
  285                -20.39      0.06      0.00
  287                -90.34      0.37      0.07
  289                298.55      1.22      0.66
  291                 87.23      0.36      0.07
  293                 56.35      0.36      0.09
  295                -17.69      0.05      0.00
  297                481.09      3.07      4.71
  299                231.30      1.48      1.21
  301                231.30      1.48      1.21
  303                249.79      1.59      1.40
  305                153.14      0.43      0.08
  307                402.93      1.14      0.47
  309                211.92      1.35      1.03
  311               -295.27      0.84      0.26
  313                498.83      1.42      0.70
  315              -1431.34      1.02      0.17
  317                106.93      0.68      0.29
  319                 60.56      0.17      0.01
  321               6916.40      3.14      0.90
  323                 80.44      0.23      0.02
  325                105.87      0.68      0.29
  329              13199.50      5.99      3.03
  330                  0.00      0.00      0.00
  333                 -0.00      0.00      0.00
  10                   0.00      0.00      0.00  Pump
  335              13199.50      0.00    -93.08  Pump
   
   
  Node Results at 24:00:00 hrs:
  --------------------------------------------------------
                     Demand      Head  Pressure  Chemical
  Node                  gpm        ft       psi      mg/L
  --------------------------------------------------------
  10                   0.00    147.42      0.18      0.00
  15                 703.88    119.59     37.95      0.00
  20                   0.00    160.16     13.50      0.00
  35                1687.91    147.95     58.69      0.00
  40                   0.00    148.45      7.17      0.00
  50                   0.00    140.47     10.38      0.00
  60                   0.00    209.11     90.61      0.00
  601                  0.00    303.12    131.34      0.00
  61                   0.00    303.12    131.34      0.00
  101                262.13    147.42     45.68      0.00
  103                183.82    147.40     45.23     59.44
  105                186.81    148.74     52.10      0.00
  107                 75.40    148.73     54.91      0.00
  109                319.33    147.40     55.07      2.07
  111                195.88    148.09     59.83      0.17
  113                 27.61    148.15     63.33      2.22
  115                 71.90    148.87     58.44      0.00
  117                162.44    151.95     59.95      0.00
  119                243.06    159.48     68.24      0.00
  120                  0.00    157.05     68.05      0.00
  121                 57.45    162.95     71.47      0.00
  123                  0.00    167.37     67.75      0.00
  125                 62.93    162.40     65.60      0.00
  127                 24.37    160.82     45.42      0.00
  129                  0.00    160.81     47.58      0.00
  131                 59.00    160.78     67.07      0.00
  139                  8.13    153.89     53.25      0.00
  141                 13.59    148.96     62.81      0.00
  143                  8.56    135.31     60.58      0.00
  145                 38.13    150.53     64.79      0.00
  147                 11.80    151.69     57.71      0.00
  149                 37.36    152.18     59.01      0.00
  151                199.38    156.95     53.49      0.00
  153                 60.95    157.05     39.37      0.00
  157                 71.47    157.07     62.38      0.00
  159                 57.02    153.75     64.02      0.00
  161                 21.80    151.49     63.91      0.00
  163                 13.00    151.04     63.28      0.00
  164                  0.00    151.04     63.28      0.00
  166                  3.59    151.04     66.31      0.00
  167                 20.09    149.19     66.81      0.00
  169                  0.00    149.19     66.81      0.00
  171                 54.29    148.12     65.91      0.00
  173                  0.00    148.09     65.90      0.00
  177                 80.27    147.96     60.65      0.00
  179                  0.00    147.97     60.65      0.00
  181                  0.00    147.96     60.64      0.00
  183                  0.00    147.97     59.35      0.04
  184                  0.00    146.25     56.44      0.41
  185                 35.40    147.00     56.76      0.43
  187                  0.00    147.78     58.62      1.01
  189                148.93    148.18     62.47      0.00
  191                113.02    148.05     53.32      0.00
  193                 98.41    148.16     56.40      0.00
  195                  0.00    148.23     57.51      0.00
  197                 23.52    148.05     54.19      2.12
  199                164.66    141.57     62.21      0.00
  201                 61.56    140.64     60.90      0.00
  203               5084.36    140.43     59.98      0.00
  204                  0.00    147.51     54.82      1.00
  205                 90.20    141.54     52.23      1.69
  206                  0.00    140.44     60.42      4.15
  207                 95.76    140.66     57.05      3.37
  208                  0.00    140.19     53.81      6.56
  209                  1.20    139.75     61.42      5.20
  211                 11.96    139.61     57.46     10.75
  213                 19.24    139.54     57.43      4.26
  215                127.22    139.33     57.34      0.00
  217                 33.42    139.31     57.76      0.00
  219                 57.02    139.30     58.63      0.00
  225                 31.46    139.31     56.90      0.00
  229                 88.57    139.44     55.87     24.90
  231                 22.74    139.43     58.25      0.00
  237                 21.54    139.55     54.40      6.99
  239                 61.56    139.55     54.83     39.66
  241                  0.00    139.55     54.83      0.00
  243                  5.99    139.55     54.40      0.00
  247                 97.12    139.55     52.67      0.00
  249                  0.00    139.55     52.67      0.00
  251                 33.34    139.56     47.47      0.00
  253                 75.24    139.67     44.92      0.00
  255                 55.74    139.73     48.85      0.00
  257                  0.00    153.92     59.33      0.00
  259                  0.00    153.48     55.67      0.00
  261                  0.00    151.90     65.82      0.00
  263                  0.00    151.74     65.75      0.00
  265                  0.00    149.78     64.90      0.00
  267                  0.00    148.21     55.12      0.00
  269                  0.00    148.57     64.37      0.00
  271                  0.00    148.00     61.53      0.00
  273                  0.00    141.54     57.86      0.00
  275                  0.00    140.66     56.61      0.00
  River           -13093.67    220.00      0.00      0.00  Reservoir
  Lake                 0.00    167.00      0.00      0.00  Reservoir
  1                 -371.89    148.45      7.17      0.00  Tank
  2                 -331.40    140.47     10.38      0.00  Tank
  3                 2114.41    160.16     13.50      0.00  Tank
   
   
  Link Results at 24:00:00 hrs:
  ----------------------------------------------
                       Flow  Velocity  Headloss
  Link                  gpm       fps   /1000ft
  ----------------------------------------------
  20               -2114.41      0.09      0.00
  40                 371.89      0.02      0.00
  50                 331.40      0.01      0.00
  60               13093.67      9.29      8.85
  101                  0.00      0.00      0.00
  103                162.02      0.26      0.02
  105               -424.15      1.20      0.52
  107                 26.20      0.07      0.00
  109                -21.79      0.03      0.00
  111               -341.13      0.97      0.35
  112                488.64      1.39      0.67
  113               -105.01      0.30      0.04
  114                119.55      0.76      0.36
  115                -49.20      0.31      0.07
  116                -13.07      0.04      0.00
  117                637.16      1.81      1.10
  119               -729.28      2.07      1.41
  120               1160.08      3.29      3.34
  121               1040.24      2.95      2.73
  122                368.80      2.35      2.88
  123               9836.95      4.46      1.73
  125              13093.67      5.94      2.94
  129               2830.47      2.01      0.59
  131               2540.52      1.80      0.49
  133              -2114.41      2.16      0.84
  135                401.74      0.28      0.02
  137                 59.00      0.09      0.00
  145                342.74      2.19      2.51
  147                334.61      2.14      2.40
  149               -712.44      4.55      9.75
  151               -703.88      4.49      9.53
  153                391.42      1.11      0.45
  155                429.55      1.22      0.53
  159               -441.35      1.25      0.56
  161               -478.70      3.06      4.67
  163               -166.06      0.47      0.09
  169                227.02      1.45      1.17
  171                512.02      1.45      0.73
  173               7921.78      3.60      1.16
  175               7850.31      3.56      1.14
  177               7793.29      3.54      1.13
  179               7519.69      3.41      1.05
  180                  3.59      0.01      0.00
  181                  3.59      0.01      0.00
  183               7295.57      3.31      1.00
  185                -20.09      0.13      0.01
  186                360.00      2.30      2.75
  187               6680.67      3.03      0.85
  189               5290.16      2.40      0.55
  191              -1336.22      0.95      0.15
  193              -1687.91      1.20      0.23
  195               -218.61      0.62      0.15
  197               -298.88      0.85      0.27
  199                 73.01      0.21      0.02
  201                371.89      1.05      0.41
  202                618.36      3.95      7.50
  203                293.76      1.87      1.89
  204                618.36      1.75      1.04
  205                360.00      1.02      0.38
  207                220.75      0.63      0.15
  209                182.38      1.16      0.78
  211                594.80      1.69      0.97
  213                177.62      0.50      0.10
  215                 90.34      0.26      0.03
  217               -257.51      0.73      0.21
  219               -251.80      0.71      0.20
  221                251.80      1.61      1.42
  223                 33.12      0.09      0.00
  225                 56.64      0.16      0.01
  229               5290.16      3.75      1.63
  231               5014.97      3.56      1.48
  233               5084.36      3.61      1.76
  235                110.52      0.31      0.04
  237                512.48      1.45      0.73
  238                411.98      1.17      0.49
  239                 -4.74      0.01      0.00
  240                411.98      1.17      0.49
  241                411.98      1.17      0.49
  243                410.78      0.66      0.12
  245                308.00      0.49      0.07
  247                249.13      0.40      0.05
  249                121.91      0.19      0.01
  251                 57.02      0.12      0.01
  257                 31.46      0.09      0.00
  261                 39.63      0.25      0.05
  263                 22.74      0.06      0.00
  269                 90.82      0.26      0.03
  271                 71.68      0.46      0.14
  273                 -2.40      0.01      0.00
  275                -20.28      0.06      0.00
  277                  5.99      0.02      0.00
  281                -26.27      0.11      0.01
  283                -43.69      0.12      0.01
  285                  1.05      0.00      0.00
  287               -124.44      0.51      0.13
  289                331.40      1.35      0.80
  291                 75.24      0.31      0.05
  293                 75.98      0.48      0.15
  295                -42.64      0.12      0.01
  297                488.65      3.12      4.85
  299                234.77      1.50      1.25
  301                234.77      1.50      1.25
  303                253.88      1.62      1.44
  305                148.51      0.42      0.07
  307                402.39      1.14      0.47
  309                207.53      1.32      0.99
  311               -117.19      0.33      0.05
  313                461.73      1.31      0.61
  315              -1469.30      1.04      0.18
  317                126.20      0.81      0.40
  319                -15.68      0.04      0.00
  321               7503.10      3.41      1.05
  323               -130.95      0.37      0.06
  325                133.08      0.85      0.44
  329              13093.67      5.94      2.98
  330                  0.00      0.00      0.00
  333                 -0.00      0.00      0.00
  10                   0.00      0.00      0.00  Pump
  335              13093.67      0.00    -94.01  Pump
   
  Analysis ended Wed May 06 18:06:39 2020
